                                  MODFLOW-NWT-SWR1 
      U.S. GEOLOGICAL SURVEY MODULAR FINITE-DIFFERENCE GROUNDWATER-FLOW MODEL
                            VERSION 1.2.0 03/01/2020
                    BASED ON MODFLOW-2005 VERSION 1.12.00 02/03/2017

 LIST FILE: ./Ag_EP1b/output/Agwater1b_high.lst
                         UNIT    9

 OPENING ./Ag_EP1b/input/Agwater1.ba6
 FILE TYPE:BAS6   UNIT   75   STATUS:OLD    
 FORMAT:FORMATTED              ACCESS:SEQUENTIAL          

 OPENING ./Ag_EP1b/input/Agwater1.upw
 FILE TYPE:UPW   UNIT    7   STATUS:OLD    
 FORMAT:FORMATTED              ACCESS:SEQUENTIAL          

 OPENING ./Ag_EP1b/input/Agwater1.dis
 FILE TYPE:DIS   UNIT    8   STATUS:OLD    
 FORMAT:FORMATTED              ACCESS:SEQUENTIAL          

 OPENING ./Ag_EP1b/input/Agwater1.nwt
 FILE TYPE:NWT   UNIT   13   STATUS:OLD    
 FORMAT:FORMATTED              ACCESS:SEQUENTIAL          

 OPENING ./Ag_EP1b/input/Agwater1.oc
 FILE TYPE:OC   UNIT   14   STATUS:OLD    
 FORMAT:FORMATTED              ACCESS:SEQUENTIAL          

 OPENING ./Ag_EP1b/input/Agwater1.sfr
 FILE TYPE:SFR   UNIT   15   STATUS:OLD    
 FORMAT:FORMATTED              ACCESS:SEQUENTIAL          

 OPENING ./Ag_EP1b/input/Agwater1.ghb
 FILE TYPE:GHB   UNIT   17   STATUS:OLD    
 FORMAT:FORMATTED              ACCESS:SEQUENTIAL          

 OPENING ./Ag_EP1b/input/Agwater1_high.uzf
 FILE TYPE:UZF   UNIT   19   STATUS:OLD    
 FORMAT:FORMATTED              ACCESS:SEQUENTIAL          

 OPENING ./Ag_EP1b/input/Agwater1.gag
 FILE TYPE:GAGE   UNIT   32   STATUS:OLD    
 FORMAT:FORMATTED              ACCESS:SEQUENTIAL          

 OPENING ./Ag_EP1b/input/seg1.tab
 FILE TYPE:DATA   UNIT   55   STATUS:UNKNOWN
 FORMAT:FORMATTED              ACCESS:SEQUENTIAL          

 OPENING ./Ag_EP1b/input/seg9.tab
 FILE TYPE:DATA   UNIT   56   STATUS:UNKNOWN
 FORMAT:FORMATTED              ACCESS:SEQUENTIAL          

 OPENING ./Ag_EP1b/input/Agwater1.ag
 FILE TYPE:AG   UNIT   57   STATUS:OLD    
 FORMAT:FORMATTED              ACCESS:SEQUENTIAL          

 OPENING ./Ag_EP1b/output/Agwater1b_high.hed
 FILE TYPE:DATA   UNIT   62   STATUS:UNKNOWN
 FORMAT:FORMATTED              ACCESS:SEQUENTIAL          

 OPENING ./Ag_EP1b/output/Agwater1GW_high.ts5
 FILE TYPE:DATA   UNIT  105   STATUS:UNKNOWN
 FORMAT:FORMATTED              ACCESS:SEQUENTIAL          

 OPENING ./Ag_EP1b/output/Agwater1GW_high_ET.ts5
 FILE TYPE:DATA   UNIT  106   STATUS:UNKNOWN
 FORMAT:FORMATTED              ACCESS:SEQUENTIAL          

 OPENING ./Ag_EP1b/output/Agwater1GW_high_ET.all
 FILE TYPE:DATA   UNIT  107   STATUS:UNKNOWN
 FORMAT:FORMATTED              ACCESS:SEQUENTIAL          

 OPENING ./Ag_EP1b/output/Agwater1GW_high.all
 FILE TYPE:DATA   UNIT  108   STATUS:UNKNOWN
 FORMAT:FORMATTED              ACCESS:SEQUENTIAL          

 OPENING ./Ag_EP1b/output/Agwater1_high.uzfot
 FILE TYPE:DATA(BINARY)   UNIT   61   STATUS:UNKNOWN
 FORMAT:BINARY                 ACCESS:SEQUENTIAL          

 OPENING ./Ag_EP1b/output/Agwater1cbc_high.unf
 FILE TYPE:DATA(BINARY)   UNIT  102   STATUS:UNKNOWN
 FORMAT:BINARY                 ACCESS:SEQUENTIAL          

 OPENING ./Ag_EP1b/output/Agwater1_high.uzf1
 FILE TYPE:DATA   UNIT   65   STATUS:UNKNOWN
 FORMAT:FORMATTED              ACCESS:SEQUENTIAL          

 OPENING ./Ag_EP1b/output/Agwater1_high.uzf2
 FILE TYPE:DATA   UNIT   66   STATUS:UNKNOWN
 FORMAT:FORMATTED              ACCESS:SEQUENTIAL          

 OPENING ./Ag_EP1b/output/Agwater1_high.uzf3
 FILE TYPE:DATA   UNIT   67   STATUS:UNKNOWN
 FORMAT:FORMATTED              ACCESS:SEQUENTIAL          

 OPENING ./Ag_EP1b/output/Agwater1_high.uzf4
 FILE TYPE:DATA   UNIT   68   STATUS:UNKNOWN
 FORMAT:FORMATTED              ACCESS:SEQUENTIAL          

 OPENING ./Ag_EP1b/output/Agwater1_high.flw
 FILE TYPE:DATA   UNIT   81   STATUS:UNKNOWN
 FORMAT:FORMATTED              ACCESS:SEQUENTIAL          

 OPENING ./Ag_EP1b/output/Agwater1_high.sg1
 FILE TYPE:DATA   UNIT   83   STATUS:UNKNOWN
 FORMAT:FORMATTED              ACCESS:SEQUENTIAL          

 OPENING ./Ag_EP1b/output/Agwater1_high.sg2
 FILE TYPE:DATA   UNIT   84   STATUS:UNKNOWN
 FORMAT:FORMATTED              ACCESS:SEQUENTIAL          

 OPENING ./Ag_EP1b/output/Agwater1_high.sg3
 FILE TYPE:DATA   UNIT   85   STATUS:UNKNOWN
 FORMAT:FORMATTED              ACCESS:SEQUENTIAL          

 OPENING ./Ag_EP1b/output/Agwater1_high.sg4
 FILE TYPE:DATA   UNIT   86   STATUS:UNKNOWN
 FORMAT:FORMATTED              ACCESS:SEQUENTIAL          

 OPENING ./Ag_EP1b/output/Agwater1_high.sg5
 FILE TYPE:DATA   UNIT   87   STATUS:UNKNOWN
 FORMAT:FORMATTED              ACCESS:SEQUENTIAL          

 OPENING ./Ag_EP1b/output/Agwater1_high.sg6
 FILE TYPE:DATA   UNIT   88   STATUS:UNKNOWN
 FORMAT:FORMATTED              ACCESS:SEQUENTIAL          

 OPENING ./Ag_EP1b/output/Agwater1_high.sg7
 FILE TYPE:DATA   UNIT   89   STATUS:UNKNOWN
 FORMAT:FORMATTED              ACCESS:SEQUENTIAL          

 OPENING ./Ag_EP1b/output/Agwater1_high.sg8
 FILE TYPE:DATA   UNIT   90   STATUS:UNKNOWN
 FORMAT:FORMATTED              ACCESS:SEQUENTIAL          

 BAS -- BASIC PACKAGE, VERSION 1.2.0, 3/01/2020 INPUT READ FROM UNIT   75
 
 MODFLOW was compiled using mixed precision
 Precision of REAL variables:           6
 Precision of DOUBLE PRECISION variables:          15

 DISCRETIZATION INPUT DATA READ FROM UNIT    8
 #Test problem 2-- Discretization input
 #Example problem using the UZF1 Package
    1 LAYERS        15 ROWS        10 COLUMNS
   49 STRESS PERIOD(S) IN SIMULATION
 MODEL TIME UNIT IS SECONDS
 MODEL LENGTH UNIT IS FEET
  Confining bed flag for each layer:
   0

                     DELR =   5000.00    

                     DELC =   5000.00    



           TOP ELEVATION OF LAYER 1
 READING ON UNIT    8 WITH FORMAT: (10F7.0)            

            1           2           3           4           5           6           7           8           9          10
 ........................................................................................................................
   1    1105.       1105.       0.000       0.000       0.000       0.000       0.000       0.000       0.000       0.000    
   2    1105.       1095.       1105.       0.000       0.000       1100.       1100.       1110.       0.000       0.000    
   3    0.000       1100.       1085.       1080.       1078.       1076.       1073.       1090.       0.000       0.000    
   4    1110.       1100.       1090.       1085.       1076.       1080.       1080.       1070.       1100.       0.000    
   5    1110.       1100.       1085.       1080.       1078.       1074.       1077.       1066.       1075.       1080.    
   6    1105.       1095.       1080.       1077.       1073.       1069.       1070.       1063.       1085.       1095.    
   7    1105.       1090.       1075.       1072.       1070.       1065.       1065.       1069.       1090.       0.000    
   8    0.000       1080.       1070.       1068.       1063.       1060.       1063.       1067.       1090.       0.000    
   9    0.000       1075.       1065.       1062.       1058.       1052.       1055.       1065.       1090.       0.000    
  10    0.000       1070.       1060.       1055.       1046.       1046.       1044.       1060.       1088.       1100.    
  11    0.000       1055.       1050.       1045.       1041.       1042.       1040.       1050.       1075.       0.000    
  12    1027.       1028.       1028.       1032.       1032.       1033.       1032.       1040.       1060.       0.000    
  13    997.0       1004.       1008.       1014.       1020.       1027.       1032.       1038.       1050.       0.000    
  14    0.000       1030.       1040.       1045.       1050.       1050.       1050.       1050.       1044.       0.000    
  15    0.000       0.000       1080.       1080.       1080.       1080.       0.000       0.000       0.000       0.000    



             MODEL LAYER BOTTOM EL. FOR LAYER   1
 READING ON UNIT    8 WITH FORMAT: (10F7.0)            

            1           2           3           4           5           6           7           8           9          10
 ........................................................................................................................
   1    1000.       1000.       0.000       0.000       0.000       0.000       0.000       0.000       0.000       0.000    
   2    1000.       900.0       900.0       0.000       0.000       950.0       950.0       950.0       0.000       0.000    
   3    0.000       850.0       670.0       680.0       680.0       770.0       770.0       890.0       0.000       0.000    
   4    925.0       850.0       650.0       650.0       650.0       680.0       740.0       850.0       950.0       0.000    
   5    925.0       800.0       650.0       600.0       600.0       600.0       650.0       720.0       850.0       950.0    
   6    925.0       800.0       650.0       600.0       550.0       600.0       650.0       720.0       850.0       970.0    
   7    925.0       800.0       650.0       600.0       550.0       600.0       650.0       720.0       950.0       0.000    
   8    0.000       850.0       700.0       650.0       570.0       600.0       700.0       850.0       950.0       0.000    
   9    0.000       850.0       700.0       650.0       540.0       580.0       700.0       850.0       950.0       0.000    
  10    0.000       850.0       700.0       630.0       530.0       580.0       650.0       800.0       900.0       950.0    
  11    0.000       850.0       700.0       620.0       580.0       620.0       700.0       800.0       900.0       0.000    
  12    900.0       830.0       710.0       640.0       600.0       650.0       700.0       800.0       900.0       0.000    
  13    900.0       810.0       750.0       700.0       650.0       700.0       750.0       800.0       900.0       0.000    
  14    0.000       950.0       850.0       850.0       850.0       850.0       850.0       850.0       850.0       0.000    
  15    0.000       0.000       950.0       950.0       950.0       950.0       0.000       0.000       0.000       0.000    


 STRESS PERIOD     LENGTH       TIME STEPS     MULTIPLIER FOR DELT    SS FLAG
 ----------------------------------------------------------------------------
        1         86400.00          1                    1.000         SS
        2         2630000.         30                    1.000         TR
        3         2630000.         30                    1.000         TR
        4         2630000.         30                    1.000         TR
        5         2630000.         30                    1.000         TR
        6         2630000.         30                    1.000         TR
        7         2630000.         30                    1.000         TR
        8         2630000.         30                    1.000         TR
        9         2630000.         30                    1.000         TR
       10         2630000.         30                    1.000         TR
       11         2630000.         30                    1.000         TR
       12         2630000.         30                    1.000         TR
       13         2630000.         30                    1.000         TR
       14         2630000.         30                    1.000         TR
       15         2630000.         30                    1.000         TR
       16         2630000.         30                    1.000         TR
       17         2630000.         30                    1.000         TR
       18         2630000.         30                    1.000         TR
       19         2630000.         30                    1.000         TR
       20         2630000.         30                    1.000         TR
       21         2630000.         30                    1.000         TR
       22         2630000.         30                    1.000         TR
       23         2630000.         30                    1.000         TR
       24         2630000.         30                    1.000         TR
       25         2630000.         30                    1.000         TR
       26         2630000.         30                    1.000         TR
       27         2630000.         30                    1.000         TR
       28         2630000.         30                    1.000         TR
       29         2630000.         30                    1.000         TR
       30         2630000.         30                    1.000         TR
       31         2630000.         30                    1.000         TR
       32         2630000.         30                    1.000         TR
       33         2630000.         30                    1.000         TR
       34         2630000.         30                    1.000         TR
       35         2630000.         30                    1.000         TR
       36         2630000.         30                    1.000         TR
       37         2630000.         30                    1.000         TR
       38         2630000.         30                    1.000         TR
       39         2630000.         30                    1.000         TR
       40         2630000.         30                    1.000         TR
       41         2630000.         30                    1.000         TR
       42         2630000.         30                    1.000         TR
       43         2630000.         30                    1.000         TR
       44         2630000.         30                    1.000         TR
       45         2630000.         30                    1.000         TR
       46         2630000.         30                    1.000         TR
       47         2630000.         30                    1.000         TR
       48         2630000.         30                    1.000         TR
       49         2630000.         30                    1.000         TR

 COMBINED STEADY-STATE AND TRANSIENT SIMULATION



 
 #Test Simulation 2-- Example problem using the UZF1 Package                     
 #Modified from example Problem 1 of SFR1 documentation report                   
 THE FREE FORMAT OPTION HAS BEEN SELECTED



                     BOUNDARY ARRAY FOR LAYER   1
 READING ON UNIT   75 WITH FORMAT: (20I4)              

                1           2           3           4           5           6           7           8           9          10
 ............................................................................................................................
   1            1           1           0           0           0           0           0           0           0           0
   2            1           1           1           0           0           1           1           1           0           0
   3            0           1           1           1           1           1           1           1           0           0
   4            1           1           1           1           1           1           1           1           1           0
   5            1           1           1           1           1           1           1           1           1           1
   6            1           1           1           1           1           1           1           1           1           1
   7            1           1           1           1           1           1           1           1           1           0
   8            0           1           1           1           1           1           1           1           1           0
   9            0           1           1           1           1           1           1           1           1           0
  10            0           1           1           1           1           1           1           1           1           1
  11            0           1           1           1           1           1           1           1           1           0
  12            1           1           1           1           1           1           1           1           1           0
  13            1           1           1           1           1           1           1           1           1           0
  14            0           1           1           1           1           1           1           1           1           0
  15            0           0           1           1           1           1           0           0           0           0

 AQUIFER HEAD WILL BE SET TO   6999.0     AT ALL NO-FLOW NODES (IBOUND=0).



                       INITIAL HEAD FOR LAYER   1
 READING ON UNIT   75 WITH FORMAT: (10F8.0)            

            1           2           3           4           5           6           7           8           9          10
 ........................................................................................................................
   1    1093.       1089.       6999.       6999.       6999.       6999.       6999.       6999.       6999.       6999.    
   2    1090.       1087.       1081.       6999.       6999.       1072.       1071.       1071.       6999.       6999.    
   3    6999.       1079.       1078.       1074.       1072.       1071.       1069.       1068.       6999.       6999.    
   4    1069.       1071.       1070.       1067.       1065.       1064.       1064.       1066.       1066.       6999.    
   5    1065.       1064.       1063.       1062.       1061.       1061.       1060.       1062.       1066.       1068.    
   6    1060.       1058.       1057.       1056.       1056.       1057.       1057.       1059.       1062.       1066.    
   7    1056.       1053.       1052.       1051.       1051.       1052.       1053.       1055.       1056.       6999.    
   8    6999.       1046.       1046.       1046.       1046.       1046.       1048.       1050.       1050.       6999.    
   9    6999.       1039.       1039.       1039.       1040.       1041.       1042.       1043.       1044.       6999.    
  10    6999.       1031.       1032.       1033.       1034.       1035.       1037.       1038.       1039.       1042.    
  11    6999.       1021.       1023.       1027.       1029.       1030.       1032.       1034.       1036.       6999.    
  12    1001.       1009.       1015.       1020.       1023.       1026.       1029.       1030.       1034.       6999.    
  13    994.5      1000.0       1007.       1013.       1019.       1024.       1029.       1034.       1036.       6999.    
  14    6999.       1004.       1009.       1014.       1019.       1024.       1029.       1035.       1039.       6999.    
  15    6999.       6999.       1012.       1015.       1019.       1022.       6999.       6999.       6999.       6999.    

 OUTPUT CONTROL IS SPECIFIED ONLY AT TIME STEPS FOR WHICH OUTPUT IS DESIRED
 HEADS WILL BE SAVED WITH FORMAT: (10F10.3)           
 SAVED HEADS WILL BE LABELED
 COMPACT CELL-BY-CELL BUDGET FILES WILL BE WRITTEN
 HEAD PRINT FORMAT CODE IS   4    DRAWDOWN PRINT FORMAT CODE IS   0
 HEADS WILL BE SAVED ON UNIT   62    DRAWDOWNS WILL BE SAVED ON UNIT    0
 # NWT Input File
 # Test Problem 3 for MODFLOW-NWT
 #HEADTOL  FLUXTOL MAXITEROUT THICKFACT LINMETH IPRNWT IBOTAV OPTIONS DBDREDUCE DBDINCREASE DBDGAMMA MOMFACT BACKFLAG MAXBACKITER BACKTOL BACKREDUCE

 NWT1 -- Newton Solver, VERSION 1.2.0, 3/01/2020
         INPUT READ FROM UNIT 13

 SPECIFIED OPTION:
 SOLVER INPUT VALUES ARE SPECIFIED BY USER
 ***XMD linear solver will be used***
 
   CONVERGENCE CRITERION OF   0.100000E-03 FOR HEAD SOLUTION
   AND A TOLERANCE OF   0.100000E+03 FOR FLOW SOLUTION AND 
   A MAXIMUM OF   500 OUTER ITERATIONS. 


   D-B-D REDUCTION FACTOR OF    0.970000E+00 AND 
   A D-B-D INCREASE FACTOR OF    0.100000E-04 AND 
   A D-B-D RELAXATION OF    0.000000E+00 AND 
   A MOMENTUM FACTOR OF    0.100000E+00 .


 ***BACKTRACKING IS INACTIVE***
 XMD -- LINEAR SOLUTION BY XMD PACKAGE VERSION 1.30
     BY MOTOMU IBARAKI, OHIO STATE UNIVERSITY, COLOMBUS, OH
                 INPUT READ FROM UNIT 13
 ACCELERATION METHOD                    (IACL) =         1
 NODE ORDERING FLAG                   (NORDER) =         0
 LEVEL OF FILL                         (LEVEL) =         7
 MAXIMUM NUMBER OF ORTHOGONALIZATIONS  (NORTH) =         7
 INDEX FOR USING REDUCED SYSTEM      (IREDSYS) =         1
 RESID. REDUCTION CONVERGE CRITERION  (RRCTOL) =  0.000000E+00
 INDEX FOR USING DROP TOLERANCE     (IDROPTOL) =         1
 DROP TOLERANCE VALUE                  (EPSRN) =  0.500000E-02
 CONVERGENCE CRITERIA OF           (HCLOSEXMD) =  0.100000E-03
 MAX. NUMBER OF LINEAR ITERATIONS  (MXITERXMD) =        50


 UPW1 -- UPSTREAM WEIGHTING FLOW PACKAGE, VERSION 1.2.0, 3/01/2020
         INPUT READ FROM UNIT  7

 #Layer-Property Flow Package input for test simulation 2
 CELL-BY-CELL FLOWS WILL BE SAVED ON UNIT  102
 No named parameters

   LAYER FLAGS:
 LAYER       LAYTYP          LAYAVG    CHANI           LAYVKA           LAYWET
 ---------------------------------------------------------------------------
    1             1             0     1.000E+00             0             0

   INTERPRETATION OF LAYER FLAGS:
                        INTERBLOCK     HORIZONTAL    DATA IN
         LAYER TYPE   TRANSMISSIVITY   ANISOTROPY   ARRAY VKA   WETTABILITY
 LAYER   (LAYTYP)        (LAYAVG)      (CHANI)     (LAYVKA)       (LAYWET)
 ---------------------------------------------------------------------------
    1   CONVERTIBLE      HARMONIC     1.000E+00    VERTICAL K  NON-WETTABLE



              HYD. COND. ALONG ROWS FOR LAYER   1
 READING ON UNIT    7 WITH FORMAT: (10F5.0)            

            1           2           3           4           5           6           7           8           9          10
 ........................................................................................................................
   1   2.0000E-03  2.0000E-03   0.000       0.000       0.000       0.000       0.000       0.000       0.000       0.000    
   2   4.0000E-04  2.0000E-03  2.0000E-03   0.000       0.000      4.0000E-04  4.0000E-04  4.0000E-04   0.000       0.000    
   3    0.000      4.0000E-04  2.0000E-03  2.0000E-03  4.0000E-04  4.0000E-04  4.0000E-04  4.0000E-04   0.000       0.000    
   4   4.0000E-04  4.0000E-04  4.0000E-04  2.0000E-03  2.0000E-03  2.0000E-03  4.0000E-04  4.0000E-04  4.0000E-04   0.000    
   5   4.0000E-04  4.0000E-04  4.0000E-04  2.0000E-03  2.0000E-03  2.0000E-03  2.0000E-03  2.0000E-03  2.0000E-03  2.0000E-03
   6   4.0000E-04  4.0000E-04  4.0000E-04  2.0000E-03  2.0000E-03  2.0000E-03  2.0000E-03  2.0000E-03  4.0000E-04  4.0000E-04
   7   4.0000E-04  4.0000E-04  4.0000E-04  2.0000E-03  2.0000E-03  2.0000E-03  2.0000E-03  2.0000E-03  4.0000E-04   0.000    
   8    0.000      4.0000E-04  4.0000E-04  2.0000E-03  2.0000E-03  2.0000E-03  2.0000E-03  4.0000E-04  4.0000E-04   0.000    
   9    0.000      4.0000E-04  4.0000E-04  2.0000E-03  2.0000E-03  2.0000E-03  2.0000E-03  4.0000E-04  4.0000E-04   0.000    
  10    0.000      4.0000E-04  4.0000E-04  2.0000E-03  2.0000E-03  2.0000E-03  2.0000E-03  4.0000E-04  4.0000E-04  4.0000E-04
  11    0.000      4.0000E-04  4.0000E-04  2.0000E-03  2.0000E-03  2.0000E-03  2.0000E-03  4.0000E-04  4.0000E-04   0.000    
  12   4.0000E-04  4.0000E-04  2.0000E-03  2.0000E-03  2.0000E-03  2.0000E-03  2.0000E-03  4.0000E-04  4.0000E-04   0.000    
  13   2.0000E-03  2.0000E-03  2.0000E-03  2.0000E-03  2.0000E-03  2.0000E-03  2.0000E-03  2.0000E-03  2.0000E-03   0.000    
  14    0.000      4.0000E-04  4.0000E-04  4.0000E-04  4.0000E-04  4.0000E-04  4.0000E-04  4.0000E-04  2.0000E-03   0.000    
  15    0.000       0.000      4.0000E-04  4.0000E-04  4.0000E-04  4.0000E-04   0.000       0.000       0.000       0.000    

      VERTICAL HYD. COND. =  1.000000E-06 FOR LAYER   1

         SPECIFIC STORAGE =  1.000000E-06 FOR LAYER   1



                     SPECIFIC YIELD FOR LAYER   1
 READING ON UNIT    7 WITH FORMAT: (10F5.0)            

            1           2           3           4           5           6           7           8           9          10
 ........................................................................................................................
   1   0.2000      0.2000       0.000       0.000       0.000       0.000       0.000       0.000       0.000       0.000    
   2   0.1000      0.2000      0.2000       0.000       0.000      0.1000      0.1000      0.1000       0.000       0.000    
   3    0.000      0.1000      0.2000      0.2000      0.1000      0.1000      0.1000      0.1000       0.000       0.000    
   4   0.1000      0.1000      0.1000      0.2000      0.2000      0.2000      0.1000      0.1000      0.1000       0.000    
   5   0.1000      0.1000      0.1000      0.2000      0.2000      0.2000      0.2000      0.2000      0.2000      0.2000    
   6   0.1000      0.1000      0.1000      0.2000      0.2000      0.2000      0.2000      0.2000      0.1000      0.1000    
   7   0.1000      0.1000      0.1000      0.2000      0.2000      0.2000      0.2000      0.2000      0.1000       0.000    
   8    0.000      0.1000      0.1000      0.2000      0.2000      0.2000      0.2000      0.1000      0.1000       0.000    
   9    0.000      0.1000      0.1000      0.2000      0.2000      0.2000      0.2000      0.1000      0.1000       0.000    
  10    0.000      0.1000      0.1000      0.2000      0.2000      0.2000      0.2000      0.1000      0.1000      0.1000    
  11    0.000      0.1000      0.1000      0.2000      0.2000      0.2000      0.2000      0.1000      0.1000       0.000    
  12   0.1000      0.1000      0.2000      0.2000      0.2000      0.2000      0.2000      0.1000      0.1000       0.000    
  13   0.2000      0.2000      0.2000      0.2000      0.2000      0.2000      0.2000      0.2000      0.2000       0.000    
  14    0.000      0.1000      0.1000      0.1000      0.1000      0.1000      0.1000      0.1000      0.2000       0.000    
  15    0.000       0.000      0.1000      0.1000      0.1000      0.1000       0.000       0.000       0.000       0.000    

 GHB -- GENERAL-HEAD BOUNDARY PACKAGE, VERSION 7, 5/2/2005
         INPUT READ FROM UNIT   17
 No named parameters
 MAXIMUM OF      2 ACTIVE GHB CELLS AT ONE TIME
 CELL-BY-CELL FLOWS WILL BE PRINTED WHEN ICBCFL NOT 0


     0 GHB parameters

 SFR7 -- STREAMFLOW ROUTING PACKAGE, VERSION 1.0.5, 2012-04-05
         INPUT READ FROM UNIT  15
 #SFR2 Package input for Testing supplimental pumping and irrigation
 No named parameters

 PROCESSING SFR2 OPTIONS
 
          1 Specified inflow files will be read with a maximum of        759 row entries per file
 
Stream loss will be calculated as a factor of the streambed hydraulic conductivity. Multiplication factor is equal to     0.1000000015E+00

 END PROCESSING SFR2 OPTIONS
 


 NUMBER OF STREAM REACHES IS   36

 NUMBER OF STREAM SEGMENTS IS    8

 NUMBER OF STREAM PARAMETERS IS    0

 NUMBER OF STREAM SEGMENTS DEFINED USING PARAMETERS IS              0

 MAXIMUM ERROR FOR STREAM LEAKAGE RATES IS  1.00E-06

 CONSTANT FOR MANNINGS EQUATION IS  1.4860E+00



 STREAM OUTPUT WILL BE WRITTEN TO FILE ON UNIT   81


   STREAM NETWORK DESCRIPTION: 

   LAYER    ROW    COL   SEGMENT   REACH     LENGTH
                          NUMBER   NUMBER    IN CELL        
   --------------------------------------------------
      1      1      1       1        1    4.5000E+03
      1      2      2       1        2    7.0000E+03
      1      3      3       1        3    6.0000E+03
      1      3      4       1        4    5.5500E+03
      1      4      5       2        1    6.5000E+03
      1      5      6       2        2    5.0000E+03
      1      6      6       2        3    5.0000E+03
      1      7      6       2        4    5.0000E+03
      1      8      6       2        5    5.0000E+03
      1      3      5       3        1    5.0000E+03
      1      3      6       3        2    5.0000E+03
      1      3      7       3        3    4.5000E+03
      1      4      8       3        4    6.0000E+03
      1      5      8       3        5    5.0000E+03
      1      6      8       3        6    2.0000E+03
      1      5     10       4        1    2.5000E+03
      1      5      9       4        2    5.0000E+03
      1      6      8       4        3    3.5000E+03
      1      6      8       5        1    4.0000E+03
      1      7      7       5        2    5.0000E+03
      1      8      7       5        3    3.5000E+03
      1      8      6       5        4    2.5000E+03
      1      9      6       6        1    5.0000E+03
      1     10      7       6        2    5.0000E+03
      1     11      7       6        3    5.0000E+03
      1     12      7       6        4    5.0000E+03
      1     13      7       6        5    2.0000E+03
      1     14      9       7        1    5.0000E+03
      1     13      8       7        2    5.5000E+03
      1     13      7       7        3    5.0000E+03
      1     13      6       8        1    5.0000E+03
      1     13      5       8        2    5.0000E+03
      1     13      4       8        3    5.0000E+03
      1     13      3       8        4    5.0000E+03
      1     13      2       8        5    5.0000E+03
      1     13      1       8        6    3.0000E+03




 UZF1 -- UNSATURATED FLOW PACKAGE, VERSION 1.5, 09/10/2019
         INPUT READ FROM UNIT 19
 #UZF Package input for test simulation 2
 No named parameters

 PROCESSING UZF OPTIONS
 
 
 INITIAL WATER CONTENT (THTI) WILL BE 
READ FOR THE FIRST SS OR TR STRESS PERIOD
 
 
 RESIDUAL WATER CONTENT (THTR) WILL BE 
READ AND USED FOR THE FIRST TRANSIENT STRESS 
PERIOD
 
 
AIR ENTRY PRESSURE AND ROOT PRESSURE WILL BE 
SPECIFIED BY USER AND UZ ET WILL BE SIMULATED 
AS PRESSURE-HEAD DEPENDENT
 
 
INFILTRATION WILL BE REJECTED USING 
LAND SURFACE K
 
 
HYDRAULIC CONDUCTIVITY OF LAND SURFACE 
WILL BE READ
 

 END PROCESSING UZF OPTIONS



            AREAL EXTENT OF UZ FLOW
 READING ON UNIT   19 WITH FORMAT: (20I4)              

                1           2           3           4           5           6           7           8           9          10
 ............................................................................................................................
   1            1           1           0           0           0           0           0           0           0           0
   2            1           1           1           0           0           1           1           1           0           0
   3            0           1           1           1           1           1           1           1           0           0
   4            1           1           1           1           1           1           1           1           1           0
   5            1           1           1           1           1           1           1           1           1           1
   6            1           1           1           1           1           1           1           1           1           1
   7            1           1           1           1           1           1           1           1           1           0
   8            0           1           1           1           1           1           1           1           1           0
   9            0           1           1           1           1           1           1           1           1           0
  10            0           1           1           1           1           1           1           1           1           1
  11            0           1           1           1           1           1           1           1           1           0
  12            1           1           1           1           1           1           1           1           1           0
  13            1           1           1           1           1           1           1           1           1           0
  14            0           1           1           1           1           1           1           1           1           0
  15            0           0           1           1           1           1           0           0           0           0
 OPTION 1 -- RECHARGE IN UZF TO TOP LAYER ONLY 



            ROUTING OVERLAND RUNOFF
 READING ON UNIT   19 WITH FORMAT: (20I4)              

                1           2           3           4           5           6           7           8           9          10
 ............................................................................................................................
   1            1           1           0           0           0           0           0           0           0           0
   2            1           1           1           0           0           3           3           3           0           0
   3            0           1           1           1           3           3           3           3           0           0
   4            8           8           2           2           2           2           2           3           3           0
   5            8           8           8           8           2           2           2           3           4           4
   6            8           8           8           8           8           2           2           4           4           4
   7            8           8           8           8           8           2           5           5           5           0
   8            0           8           8           8           8           2           5           5           5           0
   9            0           8           8           8           8           6           6           6           6           0
  10            0           8           8           8           8           6           6           6           6           6
  11            0           8           8           8           8           8           6           6           7           0
  12            8           8           8           8           8           8           6           7           7           0
  13            8           8           8           8           8           8           7           7           7           0
  14            0           8           8           8           8           8           7           7           7           0
  15            0           0           8           8           8           8           0           0           0           0



               SATURATED VERTICAL K
 READING ON UNIT   19 WITH FORMAT: (10F4.0)            

            1           2           3           4           5           6           7           8           9          10
 ........................................................................................................................
   1   1.0000E-04  1.0000E-04   0.000       0.000       0.000       0.000       0.000       0.000       0.000       0.000    
   2   1.0000E-04  1.0000E-04  1.0000E-04   0.000       0.000      1.0000E-04  1.0000E-04  1.0000E-04   0.000       0.000    
   3    0.000      1.0000E-04  1.0000E-04  1.0000E-04  1.0000E-04  1.0000E-04  1.0000E-04  1.0000E-04   0.000       0.000    
   4   1.0000E-04  1.0000E-04  1.0000E-04  1.0000E-04  1.0000E-04  1.0000E-04  1.0000E-04  1.0000E-04  1.0000E-04   0.000    
   5   1.0000E-04  1.0000E-04  1.0000E-04  1.0000E-04  1.0000E-04  1.0000E-04  1.0000E-04  1.0000E-04  1.0000E-04  1.0000E-04
   6   1.0000E-04  1.0000E-04  1.0000E-04  1.0000E-04  1.0000E-04  1.0000E-04  1.0000E-04  1.0000E-04  1.0000E-04  1.0000E-04
   7   1.0000E-04  1.0000E-04  1.0000E-04  1.0000E-04  1.0000E-04  1.0000E-04  1.0000E-04  1.0000E-04  1.0000E-04   0.000    
   8    0.000      1.0000E-04  1.0000E-04  1.0000E-04  1.0000E-04  1.0000E-04  1.0000E-04  1.0000E-04  1.0000E-04   0.000    
   9    0.000      1.0000E-04  1.0000E-04  1.0000E-04  1.0000E-04  1.0000E-04  1.0000E-04  1.0000E-04  1.0000E-04   0.000    
  10    0.000      1.0000E-04  1.0000E-04  1.0000E-04  1.0000E-04  1.0000E-04  1.0000E-04  1.0000E-04  1.0000E-04  1.0000E-04
  11    0.000      1.0000E-04  1.0000E-04  1.0000E-04  1.0000E-04  1.0000E-04  1.0000E-04  1.0000E-04  1.0000E-04   0.000    
  12   1.0000E-04  1.0000E-04  1.0000E-04  1.0000E-04  1.0000E-04  1.0000E-04  1.0000E-04  1.0000E-04  1.0000E-04   0.000    
  13   1.0000E-04  1.0000E-04  1.0000E-04  1.0000E-04  1.0000E-04  1.0000E-04  1.0000E-04  1.0000E-04  1.0000E-04   0.000    
  14    0.000      1.0000E-04  1.0000E-04  1.0000E-04  1.0000E-04  1.0000E-04  1.0000E-04  1.0000E-04  1.0000E-04   0.000    
  15    0.000       0.000      1.0000E-04  1.0000E-04  1.0000E-04  1.0000E-04   0.000       0.000       0.000       0.000    



            LAND SURFACE VERTICAL K
 READING ON UNIT   19 WITH FORMAT: (10F4.0)            

            1           2           3           4           5           6           7           8           9          10
 ........................................................................................................................
   1   1.0000E-05  1.0000E-05   0.000       0.000       0.000       0.000       0.000       0.000       0.000       0.000    
   2   1.0000E-05  1.0000E-05  1.0000E-05   0.000       0.000      1.0000E-05  1.0000E-05  1.0000E-05   0.000       0.000    
   3    0.000      1.0000E-05  1.0000E-05  1.0000E-05  1.0000E-05  1.0000E-05  1.0000E-05  1.0000E-05   0.000       0.000    
   4   1.0000E-05  1.0000E-05  1.0000E-05  1.0000E-05  1.0000E-05  1.0000E-05  1.0000E-05  1.0000E-05  1.0000E-05   0.000    
   5   1.0000E-05  1.0000E-05  1.0000E-05  1.0000E-05  1.0000E-05  1.0000E-05  1.0000E-05  1.0000E-05  1.0000E-05  1.0000E-05
   6   1.0000E-05  1.0000E-05  1.0000E-05  1.0000E-05  1.0000E-05  1.0000E-05  1.0000E-05  1.0000E-05  1.0000E-05  1.0000E-05
   7   1.0000E-05  1.0000E-05  1.0000E-05  1.0000E-05  1.0000E-05  1.0000E-05  1.0000E-05  1.0000E-05  1.0000E-05   0.000    
   8    0.000      1.0000E-05  1.0000E-05  1.0000E-05  1.0000E-05  1.0000E-05  1.0000E-05  1.0000E-05  1.0000E-05   0.000    
   9    0.000      1.0000E-05  1.0000E-05  1.0000E-05  1.0000E-05  1.0000E-05  1.0000E-05  1.0000E-05  1.0000E-05   0.000    
  10    0.000      1.0000E-05  1.0000E-05  1.0000E-05  1.0000E-05  1.0000E-05  1.0000E-05  1.0000E-05  1.0000E-05  1.0000E-05
  11    0.000      1.0000E-05  1.0000E-05  1.0000E-05  1.0000E-05  1.0000E-05  1.0000E-05  1.0000E-05  1.0000E-05   0.000    
  12   1.0000E-05  1.0000E-05  1.0000E-05  1.0000E-05  1.0000E-05  1.0000E-05  1.0000E-05  1.0000E-05  1.0000E-05   0.000    
  13   1.0000E-05  1.0000E-05  1.0000E-05  1.0000E-05  1.0000E-05  1.0000E-05  1.0000E-05  1.0000E-05  1.0000E-05   0.000    
  14    0.000      1.0000E-05  1.0000E-05  1.0000E-05  1.0000E-05  1.0000E-05  1.0000E-05  1.0000E-05  1.0000E-05   0.000    
  15    0.000       0.000      1.0000E-05  1.0000E-05  1.0000E-05  1.0000E-05   0.000       0.000       0.000       0.000    

     BROOKS-COREY EPSILON =   4.50000    

  SATURATED WATER CONTENT =  0.300000    

   RESIDUAL WATER CONTENT =  8.000000E-02

    INITIAL WATER CONTENT =  8.000000E-02

UNSATURATED FLOW RESULTS WILL BE PRINTED TO SEPARATE FILES FOR SELECTED MODEL CELLS, AND TIME STEPS AS DEFINED BY OUTPUT CONTROL PACKAGE 

SELECTED MODEL CELLS ARE: 
 ROW NUMBER  COLUMN NUMBER  FORTRAN UNIT NUMBER  OUTPUT OPTION


       6             4                 65                 1
       6             5                 66                 2
       8             4                 67                 3
       0             0                 68                 4



   8 GAGING STATIONS WERE SPECIFIED.
     (Lakes are identified by a negative value of the Lake Number)
     RECORDS WILL BE WRITTEN TO SEPARATE OUTPUT FILES REPRESENTED BY FOLLOWING UNIT NUMBERS:

 Stream Gages:
  GAGE #   SEGMENT   REACH   UNIT   OUTTYPE
       1       1       4      83       1
       2       2       3      84       1
       3       3       5      85       1
       4       4       3      86       1
       5       5       4      87       4
       6       6       5      88       4
       7       7       3      89       4
       8       8       6      90       4





 AG -- AG PACKAGE FOR NWT VERSION 1.1.3,  8/01/2017 INPUT READ FROM UNIT   57
 # AG options

 PROCESSING AG OPTIONS
 
 AGRICULTURAL DEMANDS WILL BE CALCULATED USING ET DEFICIT
 
 
 OPTION TO APPLY PUMPED WATER AS IRRIGATION IS ACTIVE. PUMPED IRRIGATION WATER WILL BE APPLIED TO          6 CELLS/RHUS.
 
 
 THE MAXIMUM NUMBER OF WELLS FOR SUPPLEMENTING DIVERSIONS OR APPLYING IRRIGATION IS          6 WELLS.
 
 
  UNFORMATTED CELL BY CELL RATES FOR SUP AND IRR WELLS WILL BE SAVED TO FILE UNIT NUMBER         -2
 
 
  UNFORMATTED CELL BY CELL RATES FOR SUP AND IRR WELLS WILL BE SAVED TO FILE UNIT NUMBER         -2
 
 
  GROUND WATER IRRIGATION, POTENTIAL AND ACTUAL ET WILL BE SAVED TO TIMES SERIES OUTPUT FILES.
 
 
  GROUND WATER IRRIGATION, POTENTIAL AND ACTUAL ET WILL BE SAVED TO TIMES SERIES OUTPUT FILES.
 

 END PROCESSING AG OPTIONS
 # AG time series

 PROCESSING TIME SERIES

 FINISHED READING TIME SERIES
 A total number of          0 AG output time series files were activated for SURFACE WATER 
 A total number of          2 AG output time series files were activated for GROUNDWATER 
 A total number of          0 AG output time series files were activated for SURFACE WATER ET
 A total number of          2 AG output time series files were activated for GROUNDWATER ET
1
                            STRESS PERIOD NO.    1, LENGTH =   86400.00    
                            -----------------------------------------------

                              NUMBER OF TIME STEPS =     1

                               MULTIPLIER FOR DELT =     1.000

                            INITIAL TIME STEP SIZE =   86400.00    

 BOUND. NO. LAYER   ROW   COL     STAGE      CONDUCTANCE         
 ----------------------------------------------------------------
      1      1     13      1       988.0          0.3800E-01
      2      1     14      9       1045.          0.3800E-01

      2 GHB CELLS



 CLASSIFICATION & COUNT OF STREAM SEGMENTS BASED ON SOURCE OF INFLOW:

                HEADWATER     DIVERSION     RECEIVES TRIBUTARY FLOW
                ---------     ---------     -----------------------
                     3              1               4



                    INPUT DATA FOR EACH STREAM SEGMENT
 ---------------------------------------------------------------------------------------------

 SEGMENT    SEG.     INFLOW   OVERLAND   STREAM    STREAM   ICALC  OUTFLOW  DIVERSION PRIORITY
    NO.    LENGTH     RATE     RUNOFF      ET       PPT.    METH.  TO SEG.  FROM SEG.    NO.

      1  2.305E+04 2.500E+01 0.000E+00 0.000E+00 0.000E+00    4        2        0        0
      2  2.650E+04 0.000E+00 0.000E+00 0.000E+00 0.000E+00    1        6        0        0
      3  2.750E+04 2.000E+00 0.000E+00 0.000E+00 0.000E+00    0        5        1        0
      4  1.100E+04 1.000E+01 0.000E+00 0.000E+00 0.000E+00    1        5        0        0
      5  1.500E+04 0.000E+00 0.000E+00 0.000E+00 0.000E+00    3        6        0        0
      6  2.200E+04 0.000E+00 0.000E+00 0.000E+00 0.000E+00    1        8        0        0
      7  1.550E+04 1.500E+02 0.000E+00 0.000E+00 0.000E+00    2        8        0        0
      8  2.800E+04 0.000E+00 0.000E+00 0.000E+00 0.000E+00    2        0        0        0


         STREAMBED PROPERTIES AND STREAM DIMENSIONS

 SEGMENT     BED HYD. COND.      BED THICKNESS     ELEV.-TOP OF BED     WIDTH OF STREAM     DEPTH OF STREAM    STREAM ROUGHNESS
    No.     UPPER     LOWER     UPPER     LOWER     UPPER     LOWER     UPPER     LOWER     UPPER     LOWER   CHANNEL      BANK

     1  3.000E-05 3.000E-05 3.000E+00 3.000E+00 1.095E+03 1.075E+03
     2  3.000E-05 3.000E-05 3.000E+00 3.000E+00 1.075E+03 1.050E+03 1.200E+01 1.200E+01                     3.000E-02
     3  3.000E-05 3.000E-05 2.000E+00 2.000E+00 1.075E+03 1.060E+03 1.000E+01 6.000E+00 2.000E+00 1.000E+00
     4  3.000E-05 3.000E-05 3.000E+00 3.000E+00 1.080E+03 1.060E+03 1.000E+01 1.000E+01                     3.000E-02
     5  3.000E-05 3.000E-05 3.000E+00 3.000E+00 1.060E+03 1.045E+03
     6  3.000E-05 3.000E-05 3.000E+00 3.000E+00 1.045E+03 1.025E+03 1.200E+01 1.200E+01                     3.000E-02
     7  6.000E-05 6.000E-05 3.000E+00 3.000E+00 1.040E+03 1.025E+03                                         2.500E-02 4.500E-02
     8  6.000E-05 6.000E-05 3.000E+00 3.000E+00 1.025E+03 9.900E+02                                         2.500E-02 4.500E-02

  EIGHT POINT CROSS-SECTION DATA FOR SEGMENTS WITH ICALC = 2
    X VALUES X VALUES START FROM LEFT SIDE LOOKING DOWNSTREAM

     SEGMENT NO.        X1        X2        X3        X4        X5        X6        X7        X8
            7      0.000E+00 1.000E+01 8.000E+01 1.000E+02 1.500E+02 1.700E+02 2.400E+02 2.500E+02
            8      0.000E+00 1.000E+01 8.000E+01 1.000E+02 1.500E+02 1.700E+02 2.400E+02 2.500E+02

    Z VALUES ARE RELATIVE TO STREAMBED ELEVATION

     SEGMENT NO.          Z1        Z2        Z3        Z4        Z5        Z6        Z7        Z8
            7      2.000E+01 1.300E+01 1.000E+01 2.000E+00 0.000E+00 1.000E+01 1.300E+01 2.000E+01
            8      2.500E+01 1.700E+01 1.300E+01 4.000E+00 0.000E+00 1.000E+01 1.600E+01 2.000E+01

 STREAMFLOW RELATION WITH DEPTH IS BASED ON EQUATION Q = CDPTH*(DEPTH)**FDPTH
 STREAMFLOW RELATION WITH WIDTH IS BASED ON EQUATION Q = AWDTH*(WIDTH)**BWDTH

 SEGMENT NO.      CDPTH     FDPTH    AWDTH     BWDTH

          5 3.000E-01 3.500E-01 3.800E+00 6.000E-01

 STREAMFLOW RELATION WITH DEPTH AND WIDTH IS BASED ON TABULATED VALUES

  SEGMENT NO.   STREAMFLOW       DEPTH       WIDTH

          1     5.0000E-01   2.5000E-01   3.0000E+00
          1     1.0000E+00   4.0000E-01   3.5000E+00
          1     2.0000E+00   5.5000E-01   4.2000E+00
          1     4.0000E+00   7.0000E-01   5.3000E+00
          1     7.0000E+00   8.0000E-01   7.0000E+00
          1     1.0000E+01   9.0000E-01   8.5000E+00
          1     2.0000E+01   1.1000E+00   1.2000E+01
          1     3.0000E+01   1.2500E+00   1.4000E+01
          1     5.0000E+01   1.4000E+00   1.7000E+01
          1     7.5000E+01   1.7000E+00   2.0000E+01
          1     1.0000E+02   1.8000E+00   2.2000E+01



TABULAR INFLOWS WERE READ FOR SEGMENT      1
FROM FILE UNIT NUMBER     55

          TIMES                    INFLOWS
         0.0000000000E+00     0.5000000000E+01
         0.8640000000E+05     0.2200000000E+02
         0.2760000000E+07     0.4200000000E+02
         0.5270000000E+07     0.7700000000E+02
         0.7950000000E+07     0.2800000000E+02
         0.1050000000E+08     0.9900000000E+02
         0.1320000000E+08     0.8300000000E+02
         0.1580000000E+08     0.7500000000E+02
         0.1850000000E+08     0.6100000000E+02
         0.2120000000E+08     0.4700000000E+02
         0.2380000000E+08     0.3500000000E+02
         0.2640000000E+08     0.2600000000E+02
         0.2900000000E+08     0.2300000000E+02
         0.3170000000E+08     0.1900000000E+02
         0.3440000000E+08     0.2100000000E+02
         0.3680000000E+08     0.9800000000E+02
         0.3950000000E+08     0.7500000000E+02
         0.4210000000E+08     0.6300000000E+02
         0.4480000000E+08     0.5800000000E+02
         0.4730000000E+08     0.5400000000E+02
         0.5000000000E+08     0.3700000000E+02
         0.5270000000E+08     0.2500000000E+02
         0.5530000000E+08     0.2200000000E+02
         0.5800000000E+08     0.2100000000E+02
         0.6060000000E+08     0.2000000000E+02
         0.6320000000E+08     0.1900000000E+02



            AREAL INFILTRATION RATE
 READING ON UNIT   19 WITH FORMAT: (10F4.0)            

            1           2           3           4           5           6           7           8           9          10
 ........................................................................................................................
   1   1.0000E-10  2.0000E-10   0.000       0.000       0.000       0.000       0.000       0.000       0.000       0.000    
   2   2.0000E-10  1.0000E-10  2.0000E-10   0.000       0.000      8.0000E-10  8.0000E-10  5.0000E-10   0.000       0.000    
   3    0.000      5.0000E-10  1.0000E-10  1.0000E-10  8.0000E-10  8.0000E-10  5.0000E-10  5.0000E-10   0.000       0.000    
   4   8.0000E-10  5.0000E-10  1.0000E-10  1.0000E-10  1.0000E-10  1.0000E-10  1.0000E-10  1.0000E-10  2.0000E-10   0.000    
   5   8.0000E-10  5.0000E-10  1.0000E-10  1.0000E-10  1.0000E-10  1.0000E-10  1.0000E-10  1.0000E-10  1.0000E-10  1.0000E-10
   6   8.0000E-10  5.0000E-10  5.0000E-10  2.0000E-10  2.0000E-10  1.0000E-10  1.0000E-10  1.0000E-10  1.0000E-10  5.0000E-10
   7   8.0000E-10  5.0000E-10  5.0000E-10  2.0000E-10  2.0000E-10  1.0000E-10  1.0000E-10  2.0000E-10  2.0000E-10   0.000    
   8    0.000      5.0000E-10  5.0000E-10  2.0000E-10  2.0000E-10  1.0000E-10  1.0000E-10  2.0000E-10  5.0000E-10   0.000    
   9    0.000      5.0000E-10  5.0000E-10  2.0000E-10  2.0000E-10  1.0000E-10  1.0000E-10  2.0000E-10  5.0000E-10   0.000    
  10    0.000      5.0000E-10  5.0000E-10  2.0000E-10  2.0000E-10  1.0000E-10  1.0000E-10  2.0000E-10  5.0000E-10  8.0000E-10
  11    0.000      1.0000E-10  1.0000E-10  1.0000E-10  1.0000E-10  1.0000E-10  1.0000E-10  2.0000E-10  5.0000E-10   0.000    
  12   1.0000E-10  1.0000E-10  1.0000E-10  1.0000E-10  1.0000E-10  1.0000E-10  1.0000E-10  1.0000E-10  2.0000E-10   0.000    
  13   1.0000E-10  1.0000E-10  2.0000E-10  2.0000E-10  2.0000E-10  2.0000E-10  2.0000E-10  1.0000E-10  1.0000E-10   0.000    
  14    0.000      2.0000E-10  5.0000E-10  5.0000E-10  5.0000E-10  5.0000E-10  5.0000E-10  2.0000E-10  1.0000E-10   0.000    
  15    0.000       0.000      8.0000E-10  8.0000E-10  8.0000E-10  8.0000E-10   0.000       0.000       0.000       0.000    

                  ET RATE =  1.000000E-08

      ET EXTINCTION DEPTH =  0.500000    

 EXTINCTION WATER CONTENT =  8.000000E-02

EXTINCTION WATER CONTENT FOR CELL AT ROW     1, COLUMN     1 IS LESS THAN RESIDUAL WATER CONTENT-- SETTING EXTINCTION WATER CONTENT EQUAL TO RESIDUAL WATER CONTENT

EXTINCTION WATER CONTENT FOR CELL AT ROW     1, COLUMN     2 IS LESS THAN RESIDUAL WATER CONTENT-- SETTING EXTINCTION WATER CONTENT EQUAL TO RESIDUAL WATER CONTENT

EXTINCTION WATER CONTENT FOR CELL AT ROW     2, COLUMN     1 IS LESS THAN RESIDUAL WATER CONTENT-- SETTING EXTINCTION WATER CONTENT EQUAL TO RESIDUAL WATER CONTENT

EXTINCTION WATER CONTENT FOR CELL AT ROW     2, COLUMN     2 IS LESS THAN RESIDUAL WATER CONTENT-- SETTING EXTINCTION WATER CONTENT EQUAL TO RESIDUAL WATER CONTENT

EXTINCTION WATER CONTENT FOR CELL AT ROW     2, COLUMN     3 IS LESS THAN RESIDUAL WATER CONTENT-- SETTING EXTINCTION WATER CONTENT EQUAL TO RESIDUAL WATER CONTENT

EXTINCTION WATER CONTENT FOR CELL AT ROW     2, COLUMN     6 IS LESS THAN RESIDUAL WATER CONTENT-- SETTING EXTINCTION WATER CONTENT EQUAL TO RESIDUAL WATER CONTENT

EXTINCTION WATER CONTENT FOR CELL AT ROW     2, COLUMN     7 IS LESS THAN RESIDUAL WATER CONTENT-- SETTING EXTINCTION WATER CONTENT EQUAL TO RESIDUAL WATER CONTENT

EXTINCTION WATER CONTENT FOR CELL AT ROW     2, COLUMN     8 IS LESS THAN RESIDUAL WATER CONTENT-- SETTING EXTINCTION WATER CONTENT EQUAL TO RESIDUAL WATER CONTENT

EXTINCTION WATER CONTENT FOR CELL AT ROW     3, COLUMN     2 IS LESS THAN RESIDUAL WATER CONTENT-- SETTING EXTINCTION WATER CONTENT EQUAL TO RESIDUAL WATER CONTENT

EXTINCTION WATER CONTENT FOR CELL AT ROW     3, COLUMN     3 IS LESS THAN RESIDUAL WATER CONTENT-- SETTING EXTINCTION WATER CONTENT EQUAL TO RESIDUAL WATER CONTENT

EXTINCTION WATER CONTENT FOR CELL AT ROW     3, COLUMN     4 IS LESS THAN RESIDUAL WATER CONTENT-- SETTING EXTINCTION WATER CONTENT EQUAL TO RESIDUAL WATER CONTENT

EXTINCTION WATER CONTENT FOR CELL AT ROW     3, COLUMN     5 IS LESS THAN RESIDUAL WATER CONTENT-- SETTING EXTINCTION WATER CONTENT EQUAL TO RESIDUAL WATER CONTENT

EXTINCTION WATER CONTENT FOR CELL AT ROW     3, COLUMN     6 IS LESS THAN RESIDUAL WATER CONTENT-- SETTING EXTINCTION WATER CONTENT EQUAL TO RESIDUAL WATER CONTENT

EXTINCTION WATER CONTENT FOR CELL AT ROW     3, COLUMN     7 IS LESS THAN RESIDUAL WATER CONTENT-- SETTING EXTINCTION WATER CONTENT EQUAL TO RESIDUAL WATER CONTENT

EXTINCTION WATER CONTENT FOR CELL AT ROW     3, COLUMN     8 IS LESS THAN RESIDUAL WATER CONTENT-- SETTING EXTINCTION WATER CONTENT EQUAL TO RESIDUAL WATER CONTENT

EXTINCTION WATER CONTENT FOR CELL AT ROW     4, COLUMN     1 IS LESS THAN RESIDUAL WATER CONTENT-- SETTING EXTINCTION WATER CONTENT EQUAL TO RESIDUAL WATER CONTENT

EXTINCTION WATER CONTENT FOR CELL AT ROW     4, COLUMN     2 IS LESS THAN RESIDUAL WATER CONTENT-- SETTING EXTINCTION WATER CONTENT EQUAL TO RESIDUAL WATER CONTENT

EXTINCTION WATER CONTENT FOR CELL AT ROW     4, COLUMN     3 IS LESS THAN RESIDUAL WATER CONTENT-- SETTING EXTINCTION WATER CONTENT EQUAL TO RESIDUAL WATER CONTENT

EXTINCTION WATER CONTENT FOR CELL AT ROW     4, COLUMN     4 IS LESS THAN RESIDUAL WATER CONTENT-- SETTING EXTINCTION WATER CONTENT EQUAL TO RESIDUAL WATER CONTENT

EXTINCTION WATER CONTENT FOR CELL AT ROW     4, COLUMN     5 IS LESS THAN RESIDUAL WATER CONTENT-- SETTING EXTINCTION WATER CONTENT EQUAL TO RESIDUAL WATER CONTENT

EXTINCTION WATER CONTENT FOR CELL AT ROW     4, COLUMN     6 IS LESS THAN RESIDUAL WATER CONTENT-- SETTING EXTINCTION WATER CONTENT EQUAL TO RESIDUAL WATER CONTENT

EXTINCTION WATER CONTENT FOR CELL AT ROW     4, COLUMN     7 IS LESS THAN RESIDUAL WATER CONTENT-- SETTING EXTINCTION WATER CONTENT EQUAL TO RESIDUAL WATER CONTENT

EXTINCTION WATER CONTENT FOR CELL AT ROW     4, COLUMN     8 IS LESS THAN RESIDUAL WATER CONTENT-- SETTING EXTINCTION WATER CONTENT EQUAL TO RESIDUAL WATER CONTENT

EXTINCTION WATER CONTENT FOR CELL AT ROW     4, COLUMN     9 IS LESS THAN RESIDUAL WATER CONTENT-- SETTING EXTINCTION WATER CONTENT EQUAL TO RESIDUAL WATER CONTENT

EXTINCTION WATER CONTENT FOR CELL AT ROW     5, COLUMN     1 IS LESS THAN RESIDUAL WATER CONTENT-- SETTING EXTINCTION WATER CONTENT EQUAL TO RESIDUAL WATER CONTENT

EXTINCTION WATER CONTENT FOR CELL AT ROW     5, COLUMN     2 IS LESS THAN RESIDUAL WATER CONTENT-- SETTING EXTINCTION WATER CONTENT EQUAL TO RESIDUAL WATER CONTENT

EXTINCTION WATER CONTENT FOR CELL AT ROW     5, COLUMN     3 IS LESS THAN RESIDUAL WATER CONTENT-- SETTING EXTINCTION WATER CONTENT EQUAL TO RESIDUAL WATER CONTENT

EXTINCTION WATER CONTENT FOR CELL AT ROW     5, COLUMN     4 IS LESS THAN RESIDUAL WATER CONTENT-- SETTING EXTINCTION WATER CONTENT EQUAL TO RESIDUAL WATER CONTENT

EXTINCTION WATER CONTENT FOR CELL AT ROW     5, COLUMN     5 IS LESS THAN RESIDUAL WATER CONTENT-- SETTING EXTINCTION WATER CONTENT EQUAL TO RESIDUAL WATER CONTENT

EXTINCTION WATER CONTENT FOR CELL AT ROW     5, COLUMN     6 IS LESS THAN RESIDUAL WATER CONTENT-- SETTING EXTINCTION WATER CONTENT EQUAL TO RESIDUAL WATER CONTENT

EXTINCTION WATER CONTENT FOR CELL AT ROW     5, COLUMN     7 IS LESS THAN RESIDUAL WATER CONTENT-- SETTING EXTINCTION WATER CONTENT EQUAL TO RESIDUAL WATER CONTENT

EXTINCTION WATER CONTENT FOR CELL AT ROW     5, COLUMN     8 IS LESS THAN RESIDUAL WATER CONTENT-- SETTING EXTINCTION WATER CONTENT EQUAL TO RESIDUAL WATER CONTENT

EXTINCTION WATER CONTENT FOR CELL AT ROW     5, COLUMN     9 IS LESS THAN RESIDUAL WATER CONTENT-- SETTING EXTINCTION WATER CONTENT EQUAL TO RESIDUAL WATER CONTENT

EXTINCTION WATER CONTENT FOR CELL AT ROW     5, COLUMN    10 IS LESS THAN RESIDUAL WATER CONTENT-- SETTING EXTINCTION WATER CONTENT EQUAL TO RESIDUAL WATER CONTENT

EXTINCTION WATER CONTENT FOR CELL AT ROW     6, COLUMN     1 IS LESS THAN RESIDUAL WATER CONTENT-- SETTING EXTINCTION WATER CONTENT EQUAL TO RESIDUAL WATER CONTENT

EXTINCTION WATER CONTENT FOR CELL AT ROW     6, COLUMN     2 IS LESS THAN RESIDUAL WATER CONTENT-- SETTING EXTINCTION WATER CONTENT EQUAL TO RESIDUAL WATER CONTENT

EXTINCTION WATER CONTENT FOR CELL AT ROW     6, COLUMN     3 IS LESS THAN RESIDUAL WATER CONTENT-- SETTING EXTINCTION WATER CONTENT EQUAL TO RESIDUAL WATER CONTENT

EXTINCTION WATER CONTENT FOR CELL AT ROW     6, COLUMN     4 IS LESS THAN RESIDUAL WATER CONTENT-- SETTING EXTINCTION WATER CONTENT EQUAL TO RESIDUAL WATER CONTENT

EXTINCTION WATER CONTENT FOR CELL AT ROW     6, COLUMN     5 IS LESS THAN RESIDUAL WATER CONTENT-- SETTING EXTINCTION WATER CONTENT EQUAL TO RESIDUAL WATER CONTENT

EXTINCTION WATER CONTENT FOR CELL AT ROW     6, COLUMN     6 IS LESS THAN RESIDUAL WATER CONTENT-- SETTING EXTINCTION WATER CONTENT EQUAL TO RESIDUAL WATER CONTENT

EXTINCTION WATER CONTENT FOR CELL AT ROW     6, COLUMN     7 IS LESS THAN RESIDUAL WATER CONTENT-- SETTING EXTINCTION WATER CONTENT EQUAL TO RESIDUAL WATER CONTENT

EXTINCTION WATER CONTENT FOR CELL AT ROW     6, COLUMN     8 IS LESS THAN RESIDUAL WATER CONTENT-- SETTING EXTINCTION WATER CONTENT EQUAL TO RESIDUAL WATER CONTENT

EXTINCTION WATER CONTENT FOR CELL AT ROW     6, COLUMN     9 IS LESS THAN RESIDUAL WATER CONTENT-- SETTING EXTINCTION WATER CONTENT EQUAL TO RESIDUAL WATER CONTENT

EXTINCTION WATER CONTENT FOR CELL AT ROW     6, COLUMN    10 IS LESS THAN RESIDUAL WATER CONTENT-- SETTING EXTINCTION WATER CONTENT EQUAL TO RESIDUAL WATER CONTENT

EXTINCTION WATER CONTENT FOR CELL AT ROW     7, COLUMN     1 IS LESS THAN RESIDUAL WATER CONTENT-- SETTING EXTINCTION WATER CONTENT EQUAL TO RESIDUAL WATER CONTENT

EXTINCTION WATER CONTENT FOR CELL AT ROW     7, COLUMN     2 IS LESS THAN RESIDUAL WATER CONTENT-- SETTING EXTINCTION WATER CONTENT EQUAL TO RESIDUAL WATER CONTENT

EXTINCTION WATER CONTENT FOR CELL AT ROW     7, COLUMN     3 IS LESS THAN RESIDUAL WATER CONTENT-- SETTING EXTINCTION WATER CONTENT EQUAL TO RESIDUAL WATER CONTENT

EXTINCTION WATER CONTENT FOR CELL AT ROW     7, COLUMN     4 IS LESS THAN RESIDUAL WATER CONTENT-- SETTING EXTINCTION WATER CONTENT EQUAL TO RESIDUAL WATER CONTENT

EXTINCTION WATER CONTENT FOR CELL AT ROW     7, COLUMN     5 IS LESS THAN RESIDUAL WATER CONTENT-- SETTING EXTINCTION WATER CONTENT EQUAL TO RESIDUAL WATER CONTENT

EXTINCTION WATER CONTENT FOR CELL AT ROW     7, COLUMN     6 IS LESS THAN RESIDUAL WATER CONTENT-- SETTING EXTINCTION WATER CONTENT EQUAL TO RESIDUAL WATER CONTENT

EXTINCTION WATER CONTENT FOR CELL AT ROW     7, COLUMN     7 IS LESS THAN RESIDUAL WATER CONTENT-- SETTING EXTINCTION WATER CONTENT EQUAL TO RESIDUAL WATER CONTENT

EXTINCTION WATER CONTENT FOR CELL AT ROW     7, COLUMN     8 IS LESS THAN RESIDUAL WATER CONTENT-- SETTING EXTINCTION WATER CONTENT EQUAL TO RESIDUAL WATER CONTENT

EXTINCTION WATER CONTENT FOR CELL AT ROW     7, COLUMN     9 IS LESS THAN RESIDUAL WATER CONTENT-- SETTING EXTINCTION WATER CONTENT EQUAL TO RESIDUAL WATER CONTENT

EXTINCTION WATER CONTENT FOR CELL AT ROW     8, COLUMN     2 IS LESS THAN RESIDUAL WATER CONTENT-- SETTING EXTINCTION WATER CONTENT EQUAL TO RESIDUAL WATER CONTENT

EXTINCTION WATER CONTENT FOR CELL AT ROW     8, COLUMN     3 IS LESS THAN RESIDUAL WATER CONTENT-- SETTING EXTINCTION WATER CONTENT EQUAL TO RESIDUAL WATER CONTENT

EXTINCTION WATER CONTENT FOR CELL AT ROW     8, COLUMN     4 IS LESS THAN RESIDUAL WATER CONTENT-- SETTING EXTINCTION WATER CONTENT EQUAL TO RESIDUAL WATER CONTENT

EXTINCTION WATER CONTENT FOR CELL AT ROW     8, COLUMN     5 IS LESS THAN RESIDUAL WATER CONTENT-- SETTING EXTINCTION WATER CONTENT EQUAL TO RESIDUAL WATER CONTENT

EXTINCTION WATER CONTENT FOR CELL AT ROW     8, COLUMN     6 IS LESS THAN RESIDUAL WATER CONTENT-- SETTING EXTINCTION WATER CONTENT EQUAL TO RESIDUAL WATER CONTENT

EXTINCTION WATER CONTENT FOR CELL AT ROW     8, COLUMN     7 IS LESS THAN RESIDUAL WATER CONTENT-- SETTING EXTINCTION WATER CONTENT EQUAL TO RESIDUAL WATER CONTENT

EXTINCTION WATER CONTENT FOR CELL AT ROW     8, COLUMN     8 IS LESS THAN RESIDUAL WATER CONTENT-- SETTING EXTINCTION WATER CONTENT EQUAL TO RESIDUAL WATER CONTENT

EXTINCTION WATER CONTENT FOR CELL AT ROW     8, COLUMN     9 IS LESS THAN RESIDUAL WATER CONTENT-- SETTING EXTINCTION WATER CONTENT EQUAL TO RESIDUAL WATER CONTENT

EXTINCTION WATER CONTENT FOR CELL AT ROW     9, COLUMN     2 IS LESS THAN RESIDUAL WATER CONTENT-- SETTING EXTINCTION WATER CONTENT EQUAL TO RESIDUAL WATER CONTENT

EXTINCTION WATER CONTENT FOR CELL AT ROW     9, COLUMN     3 IS LESS THAN RESIDUAL WATER CONTENT-- SETTING EXTINCTION WATER CONTENT EQUAL TO RESIDUAL WATER CONTENT

EXTINCTION WATER CONTENT FOR CELL AT ROW     9, COLUMN     4 IS LESS THAN RESIDUAL WATER CONTENT-- SETTING EXTINCTION WATER CONTENT EQUAL TO RESIDUAL WATER CONTENT

EXTINCTION WATER CONTENT FOR CELL AT ROW     9, COLUMN     5 IS LESS THAN RESIDUAL WATER CONTENT-- SETTING EXTINCTION WATER CONTENT EQUAL TO RESIDUAL WATER CONTENT

EXTINCTION WATER CONTENT FOR CELL AT ROW     9, COLUMN     6 IS LESS THAN RESIDUAL WATER CONTENT-- SETTING EXTINCTION WATER CONTENT EQUAL TO RESIDUAL WATER CONTENT

EXTINCTION WATER CONTENT FOR CELL AT ROW     9, COLUMN     7 IS LESS THAN RESIDUAL WATER CONTENT-- SETTING EXTINCTION WATER CONTENT EQUAL TO RESIDUAL WATER CONTENT

EXTINCTION WATER CONTENT FOR CELL AT ROW     9, COLUMN     8 IS LESS THAN RESIDUAL WATER CONTENT-- SETTING EXTINCTION WATER CONTENT EQUAL TO RESIDUAL WATER CONTENT

EXTINCTION WATER CONTENT FOR CELL AT ROW     9, COLUMN     9 IS LESS THAN RESIDUAL WATER CONTENT-- SETTING EXTINCTION WATER CONTENT EQUAL TO RESIDUAL WATER CONTENT

EXTINCTION WATER CONTENT FOR CELL AT ROW    10, COLUMN     2 IS LESS THAN RESIDUAL WATER CONTENT-- SETTING EXTINCTION WATER CONTENT EQUAL TO RESIDUAL WATER CONTENT

EXTINCTION WATER CONTENT FOR CELL AT ROW    10, COLUMN     3 IS LESS THAN RESIDUAL WATER CONTENT-- SETTING EXTINCTION WATER CONTENT EQUAL TO RESIDUAL WATER CONTENT

EXTINCTION WATER CONTENT FOR CELL AT ROW    10, COLUMN     4 IS LESS THAN RESIDUAL WATER CONTENT-- SETTING EXTINCTION WATER CONTENT EQUAL TO RESIDUAL WATER CONTENT

EXTINCTION WATER CONTENT FOR CELL AT ROW    10, COLUMN     5 IS LESS THAN RESIDUAL WATER CONTENT-- SETTING EXTINCTION WATER CONTENT EQUAL TO RESIDUAL WATER CONTENT

EXTINCTION WATER CONTENT FOR CELL AT ROW    10, COLUMN     6 IS LESS THAN RESIDUAL WATER CONTENT-- SETTING EXTINCTION WATER CONTENT EQUAL TO RESIDUAL WATER CONTENT

EXTINCTION WATER CONTENT FOR CELL AT ROW    10, COLUMN     7 IS LESS THAN RESIDUAL WATER CONTENT-- SETTING EXTINCTION WATER CONTENT EQUAL TO RESIDUAL WATER CONTENT

EXTINCTION WATER CONTENT FOR CELL AT ROW    10, COLUMN     8 IS LESS THAN RESIDUAL WATER CONTENT-- SETTING EXTINCTION WATER CONTENT EQUAL TO RESIDUAL WATER CONTENT

EXTINCTION WATER CONTENT FOR CELL AT ROW    10, COLUMN     9 IS LESS THAN RESIDUAL WATER CONTENT-- SETTING EXTINCTION WATER CONTENT EQUAL TO RESIDUAL WATER CONTENT

EXTINCTION WATER CONTENT FOR CELL AT ROW    10, COLUMN    10 IS LESS THAN RESIDUAL WATER CONTENT-- SETTING EXTINCTION WATER CONTENT EQUAL TO RESIDUAL WATER CONTENT

EXTINCTION WATER CONTENT FOR CELL AT ROW    11, COLUMN     2 IS LESS THAN RESIDUAL WATER CONTENT-- SETTING EXTINCTION WATER CONTENT EQUAL TO RESIDUAL WATER CONTENT

EXTINCTION WATER CONTENT FOR CELL AT ROW    11, COLUMN     3 IS LESS THAN RESIDUAL WATER CONTENT-- SETTING EXTINCTION WATER CONTENT EQUAL TO RESIDUAL WATER CONTENT

EXTINCTION WATER CONTENT FOR CELL AT ROW    11, COLUMN     4 IS LESS THAN RESIDUAL WATER CONTENT-- SETTING EXTINCTION WATER CONTENT EQUAL TO RESIDUAL WATER CONTENT

EXTINCTION WATER CONTENT FOR CELL AT ROW    11, COLUMN     5 IS LESS THAN RESIDUAL WATER CONTENT-- SETTING EXTINCTION WATER CONTENT EQUAL TO RESIDUAL WATER CONTENT

EXTINCTION WATER CONTENT FOR CELL AT ROW    11, COLUMN     6 IS LESS THAN RESIDUAL WATER CONTENT-- SETTING EXTINCTION WATER CONTENT EQUAL TO RESIDUAL WATER CONTENT

EXTINCTION WATER CONTENT FOR CELL AT ROW    11, COLUMN     7 IS LESS THAN RESIDUAL WATER CONTENT-- SETTING EXTINCTION WATER CONTENT EQUAL TO RESIDUAL WATER CONTENT

EXTINCTION WATER CONTENT FOR CELL AT ROW    11, COLUMN     8 IS LESS THAN RESIDUAL WATER CONTENT-- SETTING EXTINCTION WATER CONTENT EQUAL TO RESIDUAL WATER CONTENT

EXTINCTION WATER CONTENT FOR CELL AT ROW    11, COLUMN     9 IS LESS THAN RESIDUAL WATER CONTENT-- SETTING EXTINCTION WATER CONTENT EQUAL TO RESIDUAL WATER CONTENT

EXTINCTION WATER CONTENT FOR CELL AT ROW    12, COLUMN     1 IS LESS THAN RESIDUAL WATER CONTENT-- SETTING EXTINCTION WATER CONTENT EQUAL TO RESIDUAL WATER CONTENT

EXTINCTION WATER CONTENT FOR CELL AT ROW    12, COLUMN     2 IS LESS THAN RESIDUAL WATER CONTENT-- SETTING EXTINCTION WATER CONTENT EQUAL TO RESIDUAL WATER CONTENT

EXTINCTION WATER CONTENT FOR CELL AT ROW    12, COLUMN     3 IS LESS THAN RESIDUAL WATER CONTENT-- SETTING EXTINCTION WATER CONTENT EQUAL TO RESIDUAL WATER CONTENT

EXTINCTION WATER CONTENT FOR CELL AT ROW    12, COLUMN     4 IS LESS THAN RESIDUAL WATER CONTENT-- SETTING EXTINCTION WATER CONTENT EQUAL TO RESIDUAL WATER CONTENT

EXTINCTION WATER CONTENT FOR CELL AT ROW    12, COLUMN     5 IS LESS THAN RESIDUAL WATER CONTENT-- SETTING EXTINCTION WATER CONTENT EQUAL TO RESIDUAL WATER CONTENT

EXTINCTION WATER CONTENT FOR CELL AT ROW    12, COLUMN     6 IS LESS THAN RESIDUAL WATER CONTENT-- SETTING EXTINCTION WATER CONTENT EQUAL TO RESIDUAL WATER CONTENT

EXTINCTION WATER CONTENT FOR CELL AT ROW    12, COLUMN     7 IS LESS THAN RESIDUAL WATER CONTENT-- SETTING EXTINCTION WATER CONTENT EQUAL TO RESIDUAL WATER CONTENT

EXTINCTION WATER CONTENT FOR CELL AT ROW    12, COLUMN     8 IS LESS THAN RESIDUAL WATER CONTENT-- SETTING EXTINCTION WATER CONTENT EQUAL TO RESIDUAL WATER CONTENT

EXTINCTION WATER CONTENT FOR CELL AT ROW    12, COLUMN     9 IS LESS THAN RESIDUAL WATER CONTENT-- SETTING EXTINCTION WATER CONTENT EQUAL TO RESIDUAL WATER CONTENT

EXTINCTION WATER CONTENT FOR CELL AT ROW    13, COLUMN     1 IS LESS THAN RESIDUAL WATER CONTENT-- SETTING EXTINCTION WATER CONTENT EQUAL TO RESIDUAL WATER CONTENT

EXTINCTION WATER CONTENT FOR CELL AT ROW    13, COLUMN     2 IS LESS THAN RESIDUAL WATER CONTENT-- SETTING EXTINCTION WATER CONTENT EQUAL TO RESIDUAL WATER CONTENT

EXTINCTION WATER CONTENT FOR CELL AT ROW    13, COLUMN     3 IS LESS THAN RESIDUAL WATER CONTENT-- SETTING EXTINCTION WATER CONTENT EQUAL TO RESIDUAL WATER CONTENT

EXTINCTION WATER CONTENT FOR CELL AT ROW    13, COLUMN     4 IS LESS THAN RESIDUAL WATER CONTENT-- SETTING EXTINCTION WATER CONTENT EQUAL TO RESIDUAL WATER CONTENT

EXTINCTION WATER CONTENT FOR CELL AT ROW    13, COLUMN     5 IS LESS THAN RESIDUAL WATER CONTENT-- SETTING EXTINCTION WATER CONTENT EQUAL TO RESIDUAL WATER CONTENT

EXTINCTION WATER CONTENT FOR CELL AT ROW    13, COLUMN     6 IS LESS THAN RESIDUAL WATER CONTENT-- SETTING EXTINCTION WATER CONTENT EQUAL TO RESIDUAL WATER CONTENT

EXTINCTION WATER CONTENT FOR CELL AT ROW    13, COLUMN     7 IS LESS THAN RESIDUAL WATER CONTENT-- SETTING EXTINCTION WATER CONTENT EQUAL TO RESIDUAL WATER CONTENT

EXTINCTION WATER CONTENT FOR CELL AT ROW    13, COLUMN     8 IS LESS THAN RESIDUAL WATER CONTENT-- SETTING EXTINCTION WATER CONTENT EQUAL TO RESIDUAL WATER CONTENT

EXTINCTION WATER CONTENT FOR CELL AT ROW    13, COLUMN     9 IS LESS THAN RESIDUAL WATER CONTENT-- SETTING EXTINCTION WATER CONTENT EQUAL TO RESIDUAL WATER CONTENT

EXTINCTION WATER CONTENT FOR CELL AT ROW    14, COLUMN     2 IS LESS THAN RESIDUAL WATER CONTENT-- SETTING EXTINCTION WATER CONTENT EQUAL TO RESIDUAL WATER CONTENT

EXTINCTION WATER CONTENT FOR CELL AT ROW    14, COLUMN     3 IS LESS THAN RESIDUAL WATER CONTENT-- SETTING EXTINCTION WATER CONTENT EQUAL TO RESIDUAL WATER CONTENT

EXTINCTION WATER CONTENT FOR CELL AT ROW    14, COLUMN     4 IS LESS THAN RESIDUAL WATER CONTENT-- SETTING EXTINCTION WATER CONTENT EQUAL TO RESIDUAL WATER CONTENT

EXTINCTION WATER CONTENT FOR CELL AT ROW    14, COLUMN     5 IS LESS THAN RESIDUAL WATER CONTENT-- SETTING EXTINCTION WATER CONTENT EQUAL TO RESIDUAL WATER CONTENT

EXTINCTION WATER CONTENT FOR CELL AT ROW    14, COLUMN     6 IS LESS THAN RESIDUAL WATER CONTENT-- SETTING EXTINCTION WATER CONTENT EQUAL TO RESIDUAL WATER CONTENT

EXTINCTION WATER CONTENT FOR CELL AT ROW    14, COLUMN     7 IS LESS THAN RESIDUAL WATER CONTENT-- SETTING EXTINCTION WATER CONTENT EQUAL TO RESIDUAL WATER CONTENT

EXTINCTION WATER CONTENT FOR CELL AT ROW    14, COLUMN     8 IS LESS THAN RESIDUAL WATER CONTENT-- SETTING EXTINCTION WATER CONTENT EQUAL TO RESIDUAL WATER CONTENT

EXTINCTION WATER CONTENT FOR CELL AT ROW    14, COLUMN     9 IS LESS THAN RESIDUAL WATER CONTENT-- SETTING EXTINCTION WATER CONTENT EQUAL TO RESIDUAL WATER CONTENT

EXTINCTION WATER CONTENT FOR CELL AT ROW    15, COLUMN     3 IS LESS THAN RESIDUAL WATER CONTENT-- SETTING EXTINCTION WATER CONTENT EQUAL TO RESIDUAL WATER CONTENT

EXTINCTION WATER CONTENT FOR CELL AT ROW    15, COLUMN     4 IS LESS THAN RESIDUAL WATER CONTENT-- SETTING EXTINCTION WATER CONTENT EQUAL TO RESIDUAL WATER CONTENT

EXTINCTION WATER CONTENT FOR CELL AT ROW    15, COLUMN     5 IS LESS THAN RESIDUAL WATER CONTENT-- SETTING EXTINCTION WATER CONTENT EQUAL TO RESIDUAL WATER CONTENT

EXTINCTION WATER CONTENT FOR CELL AT ROW    15, COLUMN     6 IS LESS THAN RESIDUAL WATER CONTENT-- SETTING EXTINCTION WATER CONTENT EQUAL TO RESIDUAL WATER CONTENT

       AIR ENTRY PRESSURE = -0.100000    

            ROOT PRESSURE =  -30.0000    

            ROOT ACTIVITY =   1.00000    
 # AG well list

 PROCESSING WELL LIST

 LAYER   ROW   COL   MAX STRESS RATE         
 --------------------------------------------
      1      1      6      4     -0.1000E+05
      2      1      6      5     -0.1000E+05
      3      1      7      4     -0.1000E+05
      4      1      7      5     -0.1000E+05
      5      1      8      4     -0.1000E+05
      6      1      8      5     -0.1000E+05

 FINISHED READING WELL LIST

      6 WELLS

 PROCESSING AG STRESS PERIOD DATA
 # AG stress period

 READING AG STRESS PERIOD DATA

 READING IRRIGATION WELL

 END PROCESSING AG STRESS PERIOD DATA OPTIONS
 
 SOLVING FOR HEAD 
                                                   Max.-Head-Change                         Max.-Flux-Residual
  Residual-Control   Outer-Iter.   Inner-Iter.     Column Row Layer    Maximum-Head-Change  Column Row Layer    Maximum-Flux-Residual          L2-NORM 
          0                 1           6             2    2     1      -0.2729307452E+02       3    3    1        -0.3343270791E+01      0.9349602253E+01
          0                 2           6             1    1     1      -0.3190965432E+02       1   13    1        -0.1265339357E+03      0.1266532512E+03
          0                 3           6             1    1     1      -0.1572491794E+01       6   13    1        -0.2190257909E+01      0.4309171012E+01
          0                 4           5             5   13     1      -0.1413305573E+00       5   13    1        -0.2948449754E+00      0.3673593673E+00
          0                 5           4             5   14     1       0.3029532417E-01       5   13    1         0.1459711475E-01      0.2406404321E-01
          0                 6           2             5   14     1      -0.1189222913E-02       5   13    1        -0.5824423081E-03      0.1630050421E-02
          0                 7           1             5   14     1       0.1319549578E-04       7   10    1         0.2182441563E-04      0.6315083061E-04

    ------------------------------------------------
       NWT REQUIRED            7 OUTER ITERATIONS 
       AND A TOTAL OF         30 INNER ITERATIONS.
    ------------------------------------------------

 OUTPUT CONTROL FOR STRESS PERIOD    1   TIME STEP    1
    PRINT BUDGET
    PRINT HEAD FOR ALL LAYERS
    SAVE BUDGET
    SAVE HEAD FOR ALL LAYERS
 UBDSV2 SAVING "   CONSTANT HEAD" ON UNIT 102 AT TIME STEP  1, STRESS PERIOD   1
 UBDSV1 SAVING "FLOW RIGHT FACE " ON UNIT 102 AT TIME STEP  1, STRESS PERIOD   1
 UBDSV1 SAVING "FLOW FRONT FACE " ON UNIT 102 AT TIME STEP  1, STRESS PERIOD   1

  HEAD DEP BOUNDS   PERIOD    1   STEP     1
 BOUNDARY      1   LAYER   1   ROW    13   COL     1   RATE   -0.287309    
 BOUNDARY      2   LAYER   1   ROW    14   COL     9   RATE    0.285356    



 STREAM LISTING     PERIOD      1   STEP        1

 LAYER ROW COL. STREAM  RCH.  FLOW INTO     FLOW TO   FLOW OUT OF   OVRLND.     DIRECT     STREAM       STREAM     STREAM     STREAM   STREAMBED  STREAMBED
                SEG.NO.  NO.  STRM. RCH.    AQUIFER    STRM. RCH.    RUNOFF     PRECIP       ET          HEAD       DEPTH      WIDTH   CONDCTNC.   GRADIENT

   1    1    1     1     1    5.0000E+00  9.9080E-02   4.9009E+00  0.000E+00  0.000E+00  0.000E+00  1.09378E+03  7.365E-01  5.893E+00  2.652E-02  1.246E+00
   1    2    2     1     2    4.9009E+00  1.5199E-01   4.7489E+00  0.000E+00  0.000E+00  0.000E+00  1.08879E+03  7.320E-01  5.818E+00  4.072E-02  1.244E+00
   1    3    3     1     3    4.7489E+00  1.2820E-01   4.6207E+00  0.000E+00  0.000E+00  0.000E+00  1.08315E+03  7.269E-01  5.733E+00  3.440E-02  1.242E+00
   1    3    4     1     4    4.6207E+00  1.1689E-01   4.5038E+00  0.000E+00  0.000E+00  0.000E+00  1.07813E+03  7.223E-01  5.658E+00  3.140E-02  1.241E+00
   1    4    5     2     1    2.5038E+00  2.5694E-01   2.2469E+00  0.000E+00  0.000E+00  0.000E+00  1.07223E+03  2.942E-01  1.200E+01  7.800E-02  1.098E+00
   1    5    6     2     2    2.2469E+00  1.9662E-01   2.0503E+00  0.000E+00  0.000E+00  0.000E+00  1.06679E+03  2.770E-01  1.200E+01  6.000E-02  1.092E+00
   1    6    6     2     3    2.0503E+00  1.9569E-01   1.8546E+00  0.000E+00  0.000E+00  0.000E+00  1.06205E+03  2.615E-01  1.200E+01  6.000E-02  1.087E+00
   1    7    6     2     4    1.8546E+00  1.9473E-01   1.6599E+00  0.000E+00  0.000E+00  0.000E+00  1.05732E+03  2.455E-01  1.200E+01  6.000E-02  1.082E+00
   1    8    6     2     5    1.6599E+00  1.9373E-01   1.4661E+00  0.000E+00  0.000E+00  0.000E+00  1.05259E+03  2.288E-01  1.200E+01  6.000E-02  1.076E+00
   1    3    5     3     1    2.0000E+00  2.8252E-01   1.7175E+00  0.000E+00  0.000E+00  0.000E+00  1.07555E+03  1.909E+00  9.636E+00  7.227E-02  1.955E+00
   1    3    6     3     2    1.7175E+00  2.4905E-01   1.4684E+00  0.000E+00  0.000E+00  0.000E+00  1.07264E+03  1.727E+00  8.909E+00  6.682E-02  1.864E+00
   1    3    7     3     3    1.4684E+00  1.9718E-01   1.2712E+00  0.000E+00  0.000E+00  0.000E+00  1.06987E+03  1.555E+00  8.218E+00  5.547E-02  1.777E+00
   1    4    8     3     4    1.2712E+00  2.2567E-01   1.0456E+00  0.000E+00  0.000E+00  0.000E+00  1.06682E+03  1.364E+00  7.455E+00  6.709E-02  1.682E+00
   1    5    8     3     5    1.0456E+00  1.5790E-01   8.8768E-01  0.000E+00  0.000E+00  0.000E+00  1.06362E+03  1.164E+00  6.655E+00  4.991E-02  1.582E+00
   1    6    8     3     6    8.8768E-01  5.5980E-02   8.3170E-01  0.000E+00  0.000E+00  0.000E+00  1.06158E+03  1.036E+00  6.145E+00  1.844E-02  1.518E+00
   1    5   10     4     1    1.0000E+01  9.0919E-02   9.9091E+00  0.000E+00  0.000E+00  0.000E+00  1.07836E+03  6.368E-01  1.000E+01  2.500E-02  1.212E+00
   1    5    9     4     2    9.9091E+00  1.8158E-01   9.7275E+00  0.000E+00  0.000E+00  0.000E+00  1.07154E+03  6.315E-01  1.000E+01  5.000E-02  1.211E+00
   1    6    8     4     3    9.7275E+00  1.2689E-01   9.6006E+00  0.000E+00  0.000E+00  0.000E+00  1.06381E+03  6.256E-01  1.000E+01  3.500E-02  1.209E+00
   1    6    8     5     1    1.0432E+01  2.2686E-01   1.0205E+01  0.000E+00  0.000E+00  0.000E+00  1.05868E+03  6.790E-01  1.542E+01  6.166E-02  1.226E+00
   1    7    7     5     2    1.0205E+01  2.7894E-01   9.9265E+00  0.000E+00  0.000E+00  0.000E+00  1.05417E+03  6.732E-01  1.519E+01  7.594E-02  1.224E+00
   1    8    7     5     3    9.9265E+00  1.9221E-01   9.7343E+00  0.000E+00  0.000E+00  0.000E+00  1.04992E+03  6.676E-01  1.497E+01  5.241E-02  1.223E+00
   1    8    6     5     4    9.7343E+00  1.3577E-01   9.5985E+00  0.000E+00  0.000E+00  0.000E+00  1.04691E+03  6.637E-01  1.482E+01  3.706E-02  1.221E+00
   1    9    6     6     1    1.1065E+01  2.2465E-01   1.0840E+01  0.000E+00  0.000E+00  0.000E+00  1.04347E+03  7.442E-01  1.200E+01  6.000E-02  1.248E+00
   1   10    7     6     2    1.0840E+01  2.2410E-01   1.0616E+01  0.000E+00  0.000E+00  0.000E+00  1.03892E+03  7.350E-01  1.200E+01  6.000E-02  1.245E+00
   1   11    7     6     3    1.0616E+01  2.2354E-01   1.0392E+01  0.000E+00  0.000E+00  0.000E+00  1.03436E+03  7.257E-01  1.200E+01  6.000E-02  1.242E+00
   1   12    7     6     4    1.0392E+01  2.2299E-01   1.0169E+01  0.000E+00  0.000E+00  0.000E+00  1.02981E+03  7.165E-01  1.200E+01  6.000E-02  1.239E+00
   1   13    7     6     5    1.0169E+01 -1.0974E-01   1.0279E+01  0.000E+00  0.000E+00  0.000E+00  1.02662E+03  7.141E-01  1.200E+01  2.400E-01 -1.524E-01
   1   14    9     7     1    1.5000E+02  1.3299E+00   1.4867E+02  0.000E+00  0.000E+00  0.000E+00  1.03987E+03  2.288E+00  5.529E+01  5.593E-01  7.926E-01
   1   13    8     7     2    1.4867E+02  1.8245E+00   1.4685E+02  0.000E+00  0.000E+00  0.000E+00  1.03478E+03  2.279E+00  5.526E+01  6.148E-01  9.892E-01
   1   13    7     7     3    1.4685E+02  1.4573E+00   1.4539E+02  0.000E+00  0.000E+00  0.000E+00  1.02969E+03  2.271E+00  5.522E+01  5.585E-01  8.698E-01
   1   13    6     8     1    1.5567E+02  8.1890E-01   1.5485E+02  0.000E+00  0.000E+00  0.000E+00  1.02473E+03  2.853E+00  4.138E+01  4.216E-01  6.474E-01
   1   13    5     8     2    1.5485E+02  9.0639E-02   1.5476E+02  0.000E+00  0.000E+00  0.000E+00  1.01848E+03  2.850E+00  4.133E+01  4.212E-01  7.174E-02
   1   13    4     8     3    1.5476E+02 -2.7168E+00   1.5747E+02  0.000E+00  0.000E+00  0.000E+00  1.01223E+03  2.859E+00  4.146E+01  4.225E+00 -2.143E-01
   1   13    3     8     4    1.5747E+02 -3.7756E+00   1.6125E+02  0.000E+00  0.000E+00  0.000E+00  1.00601E+03  2.882E+00  4.178E+01  4.258E+00 -2.956E-01
   1   13    2     8     5    1.6125E+02 -2.6098E+00   1.6386E+02  0.000E+00  0.000E+00  0.000E+00  9.99778E+02  2.903E+00  4.209E+01  4.290E+00 -2.028E-01
   1   13    1     8     6    1.6386E+02 -1.9855E+00   1.6585E+02  0.000E+00  0.000E+00  0.000E+00  9.94793E+02  2.918E+00  4.232E+01  2.587E+00 -2.558E-01



 UBDSV3 SAVING "           GW ET" ON UNIT  61 AT TIME STEP  1, STRESS PERIOD   1
 UBDSV3 SAVING "    UZF RECHARGE" ON UNIT  61 AT TIME STEP  1, STRESS PERIOD   1
 UBDSV3 SAVING " SURFACE LEAKAGE" ON UNIT  61 AT TIME STEP  1, STRESS PERIOD   1
 UBDSV3 SAVING "       HORT+DUNN" ON UNIT  61 AT TIME STEP  1, STRESS PERIOD   1
 UBDSV3 SAVING "  STORAGE CHANGE" ON UNIT  61 AT TIME STEP  1, STRESS PERIOD   1


UNSATURATED ZONE PACKAGE VOLUMETRIC BUDGET FOR  TIME STEP     1 STRESS PERIOD    1
  ------------------------------------------------------------------------------



     CUMULATIVE VOLUMES      L**3       RATES FOR THIS TIME STEP      L**3/T
     ------------------                 ------------------------

           IN:                                      IN:
           ---                                      ---
        INFILTRATION =       73224.0000          INFILTRATION =           0.8475

          OUT:                                     OUT:
          ----                                     ----
              UZF ET =       0.0000E+00                UZF ET =       0.0000E+00
        UZF RECHARGE =       73224.0000          UZF RECHARGE =           0.8475

            IN - OUT =       0.0000E+00              IN - OUT =       0.0000E+00

          STORAGE:                                 STORAGE:
          --------                                 --------
      STORAGE CHANGE =       0.0000E+00        STORAGE CHANGE =       0.0000E+00

 PERCENT DISCREPANCY IS DIFFERENCE BETWEEN IN-OUT MINUS CHANGE IN STORAGE
 DIVIDED BY THE AVERAGE OF IN AND OUT TIMES 100

 PERCENT DISCREPANCY =           0.00     PERCENT DISCREPANCY =           0.00






 

            AG WELLS      PERIOD    1   STEP   1
 AG WELL      1   LAYER   1   ROW     6   COL     4   RATE     0.00000    
 AG WELL      2   LAYER   1   ROW     6   COL     5   RATE     0.00000    
 AG WELL      3   LAYER   1   ROW     7   COL     4   RATE     0.00000    
 AG WELL      4   LAYER   1   ROW     7   COL     5   RATE     0.00000    
 AG WELL      5   LAYER   1   ROW     8   COL     4   RATE     0.00000    
 AG WELL      6   LAYER   1   ROW     8   COL     5   RATE     0.00000    
 
 

        GW IRRIGATION     PERIOD    1   STEP   1
 
1
  VOLUMETRIC BUDGET FOR AGRICULTURAL FIELDS AT TIME STEP    1, STRESS PERIOD   1
  ------------------------------------------------------------------------------

     CUMULATIVE VOLUMES      L**3       RATES FOR THIS TIME STEP      L**3/T
     ------------------                 ------------------------

           IN:                                      IN:
           ---                                      ---
               AG WELLS  =           0.0000                 AG WELLS  =           0.0000
      DIVERSION SEGMENTS =           0.0000        DIVERSION SEGMENTS =           0.0000
           GW IRRIGATION =           0.0000             GW IRRIGATION =           0.0000
           SW IRRIGATION =           0.0000             SW IRRIGATION =           0.0000
        SYSTEM LOSSES GW =           0.0000          SYSTEM LOSSES GW =           0.0000
        SYSTEM LOSSES SW =           0.0000          SYSTEM LOSSES SW =           0.0000

                TOTAL IN =           0.0000                  TOTAL IN =           0.0000

          OUT:                                     OUT:
          ----                                     ----
               AG WELLS  =           0.0000                 AG WELLS  =           0.0000
      DIVERSION SEGMENTS =           0.0000        DIVERSION SEGMENTS =           0.0000
           GW IRRIGATION =           0.0000             GW IRRIGATION =           0.0000
           SW IRRIGATION =           0.0000             SW IRRIGATION =           0.0000
        SYSTEM LOSSES GW =           0.0000          SYSTEM LOSSES GW =           0.0000
        SYSTEM LOSSES SW =           0.0000          SYSTEM LOSSES SW =           0.0000

               TOTAL OUT =           0.0000                 TOTAL OUT =           0.0000

                IN - OUT =           0.0000                  IN - OUT =           0.0000

     PERCENT DISCREPANCY =           0.00         PERCENT DISCREPANCY =           0.00



1
              HEAD IN LAYER   1 AT END OF TIME STEP   1 IN STRESS PERIOD    1
  ---------------------------------------------------------------------------

           1       2       3       4       5       6       7       8       9      10
 ...................................................................................
   1  1033.17 1032.00 6999.00 6999.00 6999.00 6999.00 6999.00 6999.00 6999.00 6999.00
   2  1032.08 1030.71 1030.04 6999.00 6999.00 1030.93 1031.07 1031.03 6999.00 6999.00
   3  6999.00 1029.69 1029.34 1029.07 1029.57 1030.17 1030.64 1030.60 6999.00 6999.00
   4  1028.87 1028.86 1028.67 1028.45 1028.51 1028.55 1029.02 1030.06 1029.78 6999.00
   5  1028.40 1028.03 1027.85 1027.76 1027.85 1028.05 1028.21 1028.69 1029.31 1029.84
   6  1027.82 1027.26 1027.06 1027.03 1027.15 1027.48 1027.76 1028.28 1028.73 1029.66
   7  1027.30 1026.29 1026.12 1026.16 1026.33 1026.75 1027.18 1027.65 1028.16 6999.00
   8  6999.00 1024.89 1024.93 1025.09 1025.32 1025.82 1026.26 1026.98 1027.53 6999.00
   9  6999.00 1022.84 1023.17 1023.63 1024.02 1024.68 1025.20 1025.94 1027.05 6999.00
  10  6999.00 1019.98 1020.75 1021.80 1022.59 1023.61 1024.52 1025.57 1027.18 1027.82
  11  6999.00 1015.43 1016.86 1019.41 1021.05 1022.78 1024.32 1026.09 1028.27 6999.00
  12  1001.93 1007.97 1012.12 1016.09 1019.38 1022.37 1024.86 1028.24 1031.23 6999.00
  13   995.56 1000.39 1006.89 1012.88 1018.26 1022.79 1027.08 1031.81 1034.64 6999.00
  14  6999.00 1005.80 1008.89 1013.55 1018.32 1022.73 1027.63 1033.09 1037.49 6999.00
  15  6999.00 6999.00 1012.53 1015.26 1018.74 1021.76 6999.00 6999.00 6999.00 6999.00

 HEAD WILL BE SAVED ON UNIT   62 AT END OF TIME STEP    1, STRESS PERIOD    1
1
  VOLUMETRIC BUDGET FOR ENTIRE MODEL AT END OF TIME STEP    1, STRESS PERIOD   1
  ------------------------------------------------------------------------------

     CUMULATIVE VOLUMES      L**3       RATES FOR THIS TIME STEP      L**3/T
     ------------------                 ------------------------

           IN:                                      IN:
           ---                                      ---
             STORAGE     =           0.0000               STORAGE     =           0.0000
       CONSTANT HEAD     =           0.0000         CONSTANT HEAD     =           0.0000
     HEAD DEP BOUNDS     =       24654.7383       HEAD DEP BOUNDS     =           0.2854
      STREAM LEAKAGE     =      894399.3125        STREAM LEAKAGE     =          10.3518
        UZF RECHARGE     =       73223.9531          UZF RECHARGE     =           0.8475
               GW ET     =           0.0000                 GW ET     =           0.0000
     SURFACE LEAKAGE     =           0.0000       SURFACE LEAKAGE     =           0.0000
           AG WELLS      =           0.0000             AG WELLS      =           0.0000

                TOTAL IN =      992278.0000                  TOTAL IN =          11.4847

          OUT:                                     OUT:
          ----                                     ----
             STORAGE     =           0.0000               STORAGE     =           0.0000
       CONSTANT HEAD     =           0.0000         CONSTANT HEAD     =           0.0000
     HEAD DEP BOUNDS     =       24823.4590       HEAD DEP BOUNDS     =           0.2873
      STREAM LEAKAGE     =      967454.4375        STREAM LEAKAGE     =          11.1974
        UZF RECHARGE     =           0.0000          UZF RECHARGE     =           0.0000
               GW ET     =           0.0000                 GW ET     =           0.0000
     SURFACE LEAKAGE     =           0.0000       SURFACE LEAKAGE     =           0.0000
           AG WELLS      =           0.0000             AG WELLS      =           0.0000

               TOTAL OUT =      992277.8750                 TOTAL OUT =          11.4847

                IN - OUT =           0.1250                  IN - OUT =       9.5367E-07

     PERCENT DISCREPANCY =           0.00         PERCENT DISCREPANCY =           0.00






         TIME SUMMARY AT END OF TIME STEP    1 IN STRESS PERIOD    1
                    SECONDS     MINUTES      HOURS       DAYS        YEARS
                    -----------------------------------------------------------
   TIME STEP LENGTH  86400.      1440.0      24.000      1.0000     2.73785E-03
 STRESS PERIOD TIME  86400.      1440.0      24.000      1.0000     2.73785E-03
         TOTAL TIME  86400.      1440.0      24.000      1.0000     2.73785E-03
1
1
                            STRESS PERIOD NO.    2, LENGTH =   2630000.    
                            -----------------------------------------------

                              NUMBER OF TIME STEPS =    30

                               MULTIPLIER FOR DELT =     1.000

                            INITIAL TIME STEP SIZE =   87666.66    

 REUSING NON-PARAMETER GHB CELLS FROM LAST STRESS PERIOD

      2 GHB CELLS

 REUSING STREAM SEGMENT DATA FROM LAST STRESS PERIOD



            AREAL INFILTRATION RATE
 READING ON UNIT   19 WITH FORMAT: (10F4.0)            

            1           2           3           4           5           6           7           8           9          10
 ........................................................................................................................
   1   1.2000E-09   0.000       0.000       0.000       0.000       0.000       0.000       0.000       0.000       0.000    
   2   2.1000E-09  2.0000E-09  8.0000E-10  8.5000E-09   0.000       0.000       0.000       0.000       0.000       0.000    
   3   5.0000E-10  1.1000E-09  8.8000E-09  5.5000E-09   0.000       0.000       0.000       0.000       0.000       0.000    
   4   8.5000E-09  1.1000E-09  1.1000E-09  1.1000E-09  2.0000E-09   0.000       0.000       0.000       0.000       0.000    
   5   8.5000E-09  1.1000E-09  1.1000E-09  1.1000E-09  1.1000E-09   0.000       0.000       0.000       0.000       0.000    
   6   8.5000E-09  5.2000E-09  2.1000E-09  1.1000E-09  1.5000E-09   0.000       0.000       0.000       0.000       0.000    
   7   8.5000E-09  5.2000E-09  2.1000E-09  1.2000E-09  2.0000E-09   0.000       0.000       0.000       0.000       0.000    
   8   5.0000E-10  5.2000E-09  2.1000E-09  1.2000E-09  5.0000E-09   0.000       0.000       0.000       0.000       0.000    
   9   5.0000E-10  5.2000E-09  2.1000E-09  1.2000E-09  5.0000E-09   0.000       0.000       0.000       0.000       0.000    
  10   5.0000E-10  5.2000E-09  2.1000E-09  1.2000E-09  5.8000E-09   0.000       0.000       0.000       0.000       0.000    
  11   1.0000E-10  1.1000E-09  1.1000E-09  1.2000E-09  5.0000E-09   0.000       0.000       0.000       0.000       0.000    
  12   1.1000E-09  1.1000E-09  1.1000E-09  1.1000E-09  2.0000E-09   0.000       0.000       0.000       0.000       0.000    
  13   1.1000E-09  2.2000E-09  2.2000E-09  2.1000E-09  1.0000E-09   0.000       0.000       0.000       0.000       0.000    
  14   2.0000E-10  5.5000E-09  5.5000E-09  5.2000E-09  1.0000E-09   0.000       0.000       0.000       0.000       0.000    
  15    0.000      8.8000E-09  8.8000E-09   0.000       0.000       0.000       0.000       0.000       0.000       0.000    

                  ET RATE =  5.000000E-10

 USING ET EXTINCTION DEPTH FROM PREVIOUS STRESS PERIOD. CURRENT PERIOD IS:       2

 USING EXTINCTION WATER CONTENT FROM PREVIOUS STRESS PERIOD. CURRENT PERIOD IS:       2

 USING AIR ENTRY PRESSURE FROM PREVIOUS STRESS PERIOD. CURRENT PERIOD IS:       2

 USING ROOT PRESSURE HEAD FROM PREVIOUS STRESS PERIOD. CURRENT PERIOD IS:       2

 USING ROOT ACTIVITY FROM PREVIOUS STRESS PERIOD. CURRENT PERIOD IS:       2

 PROCESSING AG STRESS PERIOD DATA

 READING AG STRESS PERIOD DATA

 READING IRRIGATION WELL

 END PROCESSING AG STRESS PERIOD DATA OPTIONS
 
 SOLVING FOR HEAD 
                                                   Max.-Head-Change                         Max.-Flux-Residual
  Residual-Control   Outer-Iter.   Inner-Iter.     Column Row Layer    Maximum-Head-Change  Column Row Layer    Maximum-Flux-Residual          L2-NORM 
          0                 1           2             4   13     1       0.6100919041E-02       4   13    1         0.3498418340E+00      0.7241930586E+00
          0                 2           2             4   13     1      -0.5804860109E-03       4   13    1        -0.3422487416E-01      0.7535301527E-01
          0                 3           1             4   13     1       0.3890269108E-04       4   13    1         0.2358247986E-02      0.5142529305E-02

    ------------------------------------------------
       NWT REQUIRED            3 OUTER ITERATIONS 
       AND A TOTAL OF          5 INNER ITERATIONS.
    ------------------------------------------------

 OUTPUT CONTROL FOR STRESS PERIOD    2   TIME STEP    1
    PRINT BUDGET
    PRINT HEAD FOR ALL LAYERS
    SAVE BUDGET
 UBDSV1 SAVING "         STORAGE" ON UNIT 102 AT TIME STEP  1, STRESS PERIOD   2
 UBDSV2 SAVING "   CONSTANT HEAD" ON UNIT 102 AT TIME STEP  1, STRESS PERIOD   2
 UBDSV1 SAVING "FLOW RIGHT FACE " ON UNIT 102 AT TIME STEP  1, STRESS PERIOD   2
 UBDSV1 SAVING "FLOW FRONT FACE " ON UNIT 102 AT TIME STEP  1, STRESS PERIOD   2

  HEAD DEP BOUNDS   PERIOD    2   STEP     1
 BOUNDARY      1   LAYER   1   ROW    13   COL     1   RATE   -0.287428    
 BOUNDARY      2   LAYER   1   ROW    14   COL     9   RATE    0.285357    



 STREAM LISTING     PERIOD      2   STEP        1

 LAYER ROW COL. STREAM  RCH.  FLOW INTO     FLOW TO   FLOW OUT OF   OVRLND.     DIRECT     STREAM       STREAM     STREAM     STREAM   STREAMBED  STREAMBED
                SEG.NO.  NO.  STRM. RCH.    AQUIFER    STRM. RCH.    RUNOFF     PRECIP       ET          HEAD       DEPTH      WIDTH   CONDCTNC.   GRADIENT

   1    1    1     1     1    2.2000E+01  2.3088E-01   2.1769E+01  0.000E+00  0.000E+00  0.000E+00  1.09418E+03  1.132E+00  1.242E+01  5.588E-02  1.377E+00
   1    2    2     1     2    2.1769E+01  3.5689E-01   2.1412E+01  0.000E+00  0.000E+00  0.000E+00  1.08919E+03  1.127E+00  1.235E+01  8.648E-02  1.376E+00
   1    3    3     1     3    2.1412E+01  3.0372E-01   2.1109E+01  0.000E+00  0.000E+00  0.000E+00  1.08354E+03  1.121E+00  1.228E+01  7.369E-02  1.374E+00
   1    3    4     1     4    2.1109E+01  2.7914E-01   2.0829E+01  0.000E+00  0.000E+00  0.000E+00  1.07852E+03  1.117E+00  1.222E+01  6.781E-02  1.372E+00
   1    4    5     2     1    1.8829E+01  3.1306E-01   1.8516E+01  0.000E+00  0.000E+00  0.000E+00  1.07295E+03  1.014E+00  1.200E+01  7.800E-02  1.338E+00
   1    5    6     2     2    1.8516E+01  2.4027E-01   1.8276E+01  0.000E+00  0.000E+00  0.000E+00  1.06751E+03  1.005E+00  1.200E+01  6.000E-02  1.335E+00
   1    6    6     2     3    1.8276E+01  2.3980E-01   1.8036E+01  0.000E+00  0.000E+00  0.000E+00  1.06279E+03  9.967E-01  1.200E+01  6.000E-02  1.332E+00
   1    7    6     2     4    1.8036E+01  2.3933E-01   1.7797E+01  0.000E+00  0.000E+00  0.000E+00  1.05806E+03  9.888E-01  1.200E+01  6.000E-02  1.330E+00
   1    8    6     2     5    1.7797E+01  2.3885E-01   1.7558E+01  0.000E+00  0.000E+00  0.000E+00  1.05334E+03  9.808E-01  1.200E+01  6.000E-02  1.327E+00
   1    3    5     3     1    2.0000E+00  2.8252E-01   1.7175E+00  0.000E+00  0.000E+00  0.000E+00  1.07555E+03  1.909E+00  9.636E+00  7.227E-02  1.955E+00
   1    3    6     3     2    1.7175E+00  2.4905E-01   1.4684E+00  0.000E+00  0.000E+00  0.000E+00  1.07264E+03  1.727E+00  8.909E+00  6.682E-02  1.864E+00
   1    3    7     3     3    1.4684E+00  1.9718E-01   1.2712E+00  0.000E+00  0.000E+00  0.000E+00  1.06987E+03  1.555E+00  8.218E+00  5.547E-02  1.777E+00
   1    4    8     3     4    1.2712E+00  2.2567E-01   1.0456E+00  0.000E+00  0.000E+00  0.000E+00  1.06682E+03  1.364E+00  7.455E+00  6.709E-02  1.682E+00
   1    5    8     3     5    1.0456E+00  1.5790E-01   8.8768E-01  0.000E+00  0.000E+00  0.000E+00  1.06362E+03  1.164E+00  6.655E+00  4.991E-02  1.582E+00
   1    6    8     3     6    8.8768E-01  5.5980E-02   8.3170E-01  0.000E+00  0.000E+00  0.000E+00  1.06158E+03  1.036E+00  6.145E+00  1.844E-02  1.518E+00
   1    5   10     4     1    1.0000E+01  9.0919E-02   9.9091E+00  0.000E+00  0.000E+00  0.000E+00  1.07836E+03  6.368E-01  1.000E+01  2.500E-02  1.212E+00
   1    5    9     4     2    9.9091E+00  1.8158E-01   9.7275E+00  0.000E+00  0.000E+00  0.000E+00  1.07154E+03  6.315E-01  1.000E+01  5.000E-02  1.211E+00
   1    6    8     4     3    9.7275E+00  1.2689E-01   9.6006E+00  0.000E+00  0.000E+00  0.000E+00  1.06381E+03  6.256E-01  1.000E+01  3.500E-02  1.209E+00
   1    6    8     5     1    1.0432E+01  2.2686E-01   1.0205E+01  0.000E+00  0.000E+00  0.000E+00  1.05868E+03  6.790E-01  1.542E+01  6.166E-02  1.226E+00
   1    7    7     5     2    1.0205E+01  2.7894E-01   9.9265E+00  0.000E+00  0.000E+00  0.000E+00  1.05417E+03  6.732E-01  1.519E+01  7.594E-02  1.224E+00
   1    8    7     5     3    9.9265E+00  1.9221E-01   9.7343E+00  0.000E+00  0.000E+00  0.000E+00  1.04992E+03  6.676E-01  1.497E+01  5.241E-02  1.223E+00
   1    8    6     5     4    9.7343E+00  1.3577E-01   9.5985E+00  0.000E+00  0.000E+00  0.000E+00  1.04691E+03  6.637E-01  1.482E+01  3.706E-02  1.221E+00
   1    9    6     6     1    2.7157E+01  2.5677E-01   2.6900E+01  0.000E+00  0.000E+00  0.000E+00  1.04401E+03  1.280E+00  1.200E+01  6.000E-02  1.427E+00
   1   10    7     6     2    2.6900E+01  2.5634E-01   2.6643E+01  0.000E+00  0.000E+00  0.000E+00  1.03945E+03  1.272E+00  1.200E+01  6.000E-02  1.424E+00
   1   11    7     6     3    2.6643E+01  2.5590E-01   2.6388E+01  0.000E+00  0.000E+00  0.000E+00  1.03490E+03  1.265E+00  1.200E+01  6.000E-02  1.422E+00
   1   12    7     6     4    2.6388E+01  2.5546E-01   2.6132E+01  0.000E+00  0.000E+00  0.000E+00  1.03035E+03  1.258E+00  1.200E+01  6.000E-02  1.419E+00
   1   13    7     6     5    2.6132E+01  1.9386E-03   2.6130E+01  0.000E+00  0.000E+00  0.000E+00  1.02716E+03  1.254E+00  1.200E+01  2.400E-02  2.692E-02
   1   14    9     7     1    1.5000E+02  1.3299E+00   1.4867E+02  0.000E+00  0.000E+00  0.000E+00  1.03987E+03  2.288E+00  5.529E+01  5.593E-01  7.926E-01
   1   13    8     7     2    1.4867E+02  1.8245E+00   1.4685E+02  0.000E+00  0.000E+00  0.000E+00  1.03478E+03  2.279E+00  5.526E+01  6.148E-01  9.892E-01
   1   13    7     7     3    1.4685E+02  1.4563E+00   1.4539E+02  0.000E+00  0.000E+00  0.000E+00  1.02969E+03  2.271E+00  5.522E+01  5.585E-01  8.692E-01
   1   13    6     8     1    1.7152E+02  8.9491E-01   1.7062E+02  0.000E+00  0.000E+00  0.000E+00  1.02483E+03  2.959E+00  4.291E+01  4.372E-01  6.822E-01
   1   13    5     8     2    1.7062E+02  1.3970E-01   1.7048E+02  0.000E+00  0.000E+00  0.000E+00  1.01858E+03  2.956E+00  4.286E+01  4.368E-01  1.066E-01
   1   13    4     8     3    1.7048E+02 -2.3855E+00   1.7287E+02  0.000E+00  0.000E+00  0.000E+00  1.01234E+03  2.963E+00  4.296E+01  4.378E+00 -1.816E-01
   1   13    3     8     4    1.7287E+02 -3.4863E+00   1.7636E+02  0.000E+00  0.000E+00  0.000E+00  1.00611E+03  2.982E+00  4.324E+01  4.406E+00 -2.637E-01
   1   13    2     8     5    1.7636E+02 -2.2902E+00   1.7865E+02  0.000E+00  0.000E+00  0.000E+00  9.99875E+02  3.000E+00  4.351E+01  4.433E+00 -1.722E-01
   1   13    1     8     6    1.7865E+02 -1.8047E+00   1.8045E+02  0.000E+00  0.000E+00  0.000E+00  9.94888E+02  3.013E+00  4.369E+01  2.671E+00 -2.252E-01



 UBDSV3 SAVING "           GW ET" ON UNIT  61 AT TIME STEP  1, STRESS PERIOD   2
 UBDSV3 SAVING "    UZF RECHARGE" ON UNIT  61 AT TIME STEP  1, STRESS PERIOD   2
 UBDSV3 SAVING " SURFACE LEAKAGE" ON UNIT  61 AT TIME STEP  1, STRESS PERIOD   2
 UBDSV3 SAVING "       HORT+DUNN" ON UNIT  61 AT TIME STEP  1, STRESS PERIOD   2
 UBDSV3 SAVING "  STORAGE CHANGE" ON UNIT  61 AT TIME STEP  1, STRESS PERIOD   2


UNSATURATED ZONE PACKAGE VOLUMETRIC BUDGET FOR  TIME STEP     1 STRESS PERIOD    2
  ------------------------------------------------------------------------------



     CUMULATIVE VOLUMES      L**3       RATES FOR THIS TIME STEP      L**3/T
     ------------------                 ------------------------

           IN:                                      IN:
           ---                                      ---
        INFILTRATION =      459614.8186          INFILTRATION =           4.4075

          OUT:                                     OUT:
          ----                                     ----
              UZF ET =       63558.3561                UZF ET =           0.7250
        UZF RECHARGE =       73224.0000          UZF RECHARGE =       0.0000E+00

            IN - OUT =      322832.4625              IN - OUT =           3.6825

          STORAGE:                                 STORAGE:
          --------                                 --------
      STORAGE CHANGE =      322832.4611        STORAGE CHANGE =           3.6825

 PERCENT DISCREPANCY IS DIFFERENCE BETWEEN IN-OUT MINUS CHANGE IN STORAGE
 DIVIDED BY THE AVERAGE OF IN AND OUT TIMES 100

 PERCENT DISCREPANCY =           0.00     PERCENT DISCREPANCY =           0.00






 

            AG WELLS      PERIOD    2   STEP   1
 AG WELL      1   LAYER   1   ROW     6   COL     4   RATE     0.00000    
 AG WELL      2   LAYER   1   ROW     6   COL     5   RATE     0.00000    
 AG WELL      3   LAYER   1   ROW     7   COL     4   RATE     0.00000    
 AG WELL      4   LAYER   1   ROW     7   COL     5   RATE     0.00000    
 AG WELL      5   LAYER   1   ROW     8   COL     4   RATE     0.00000    
 AG WELL      6   LAYER   1   ROW     8   COL     5   RATE     0.00000    
 
 

        GW IRRIGATION     PERIOD    2   STEP   1
 
1
  VOLUMETRIC BUDGET FOR AGRICULTURAL FIELDS AT TIME STEP    1, STRESS PERIOD   2
  ------------------------------------------------------------------------------

     CUMULATIVE VOLUMES      L**3       RATES FOR THIS TIME STEP      L**3/T
     ------------------                 ------------------------

           IN:                                      IN:
           ---                                      ---
               AG WELLS  =           0.0000                 AG WELLS  =           0.0000
      DIVERSION SEGMENTS =           0.0000        DIVERSION SEGMENTS =           0.0000
           GW IRRIGATION =           0.0000             GW IRRIGATION =           0.0000
           SW IRRIGATION =           0.0000             SW IRRIGATION =           0.0000
        SYSTEM LOSSES GW =           0.0000          SYSTEM LOSSES GW =           0.0000
        SYSTEM LOSSES SW =           0.0000          SYSTEM LOSSES SW =           0.0000

                TOTAL IN =           0.0000                  TOTAL IN =           0.0000

          OUT:                                     OUT:
          ----                                     ----
               AG WELLS  =           0.0000                 AG WELLS  =           0.0000
      DIVERSION SEGMENTS =           0.0000        DIVERSION SEGMENTS =           0.0000
           GW IRRIGATION =           0.0000             GW IRRIGATION =           0.0000
           SW IRRIGATION =           0.0000             SW IRRIGATION =           0.0000
        SYSTEM LOSSES GW =           0.0000          SYSTEM LOSSES GW =           0.0000
        SYSTEM LOSSES SW =           0.0000          SYSTEM LOSSES SW =           0.0000

               TOTAL OUT =           0.0000                 TOTAL OUT =           0.0000

                IN - OUT =           0.0000                  IN - OUT =           0.0000

     PERCENT DISCREPANCY =           0.00         PERCENT DISCREPANCY =           0.00



1
              HEAD IN LAYER   1 AT END OF TIME STEP   1 IN STRESS PERIOD    2
  ---------------------------------------------------------------------------

           1       2       3       4       5       6       7       8       9      10
 ...................................................................................
   1  1033.17 1032.00 6999.00 6999.00 6999.00 6999.00 6999.00 6999.00 6999.00 6999.00
   2  1032.08 1030.72 1030.04 6999.00 6999.00 1030.93 1031.07 1031.03 6999.00 6999.00
   3  6999.00 1029.69 1029.34 1029.07 1029.57 1030.17 1030.64 1030.60 6999.00 6999.00
   4  1028.87 1028.86 1028.67 1028.45 1028.51 1028.55 1029.02 1030.06 1029.78 6999.00
   5  1028.40 1028.03 1027.85 1027.76 1027.85 1028.05 1028.21 1028.69 1029.31 1029.84
   6  1027.82 1027.26 1027.06 1027.03 1027.15 1027.48 1027.76 1028.28 1028.73 1029.66
   7  1027.30 1026.29 1026.12 1026.16 1026.33 1026.75 1027.18 1027.65 1028.15 6999.00
   8  6999.00 1024.89 1024.92 1025.09 1025.32 1025.83 1026.26 1026.98 1027.53 6999.00
   9  6999.00 1022.84 1023.17 1023.63 1024.02 1024.68 1025.20 1025.94 1027.05 6999.00
  10  6999.00 1019.98 1020.75 1021.80 1022.59 1023.61 1024.52 1025.57 1027.18 1027.82
  11  6999.00 1015.43 1016.86 1019.41 1021.05 1022.78 1024.32 1026.09 1028.27 6999.00
  12  1001.93 1007.97 1012.12 1016.09 1019.38 1022.37 1024.86 1028.24 1031.22 6999.00
  13   995.56 1000.39 1006.90 1012.88 1018.26 1022.79 1027.08 1031.81 1034.64 6999.00
  14  6999.00 1005.80 1008.89 1013.55 1018.32 1022.73 1027.63 1033.09 1037.49 6999.00
  15  6999.00 6999.00 1012.53 1015.26 1018.74 1021.76 6999.00 6999.00 6999.00 6999.00
1
  VOLUMETRIC BUDGET FOR ENTIRE MODEL AT END OF TIME STEP    1, STRESS PERIOD   2
  ------------------------------------------------------------------------------

     CUMULATIVE VOLUMES      L**3       RATES FOR THIS TIME STEP      L**3/T
     ------------------                 ------------------------

           IN:                                      IN:
           ---                                      ---
             STORAGE     =       66398.0156               STORAGE     =           0.7574
       CONSTANT HEAD     =           0.0000         CONSTANT HEAD     =           0.0000
     HEAD DEP BOUNDS     =       49671.0742       HEAD DEP BOUNDS     =           0.2854
      STREAM LEAKAGE     =     1903893.3750        STREAM LEAKAGE     =          11.5151
        UZF RECHARGE     =       73223.9531          UZF RECHARGE     =           0.0000
               GW ET     =           0.0000                 GW ET     =           0.0000
     SURFACE LEAKAGE     =           0.0000       SURFACE LEAKAGE     =           0.0000
           AG WELLS      =           0.0000             AG WELLS      =           0.0000

                TOTAL IN =     2093186.5000                  TOTAL IN =          12.5579

          OUT:                                     OUT:
          ----                                     ----
             STORAGE     =      201998.7969               STORAGE     =           2.3042
       CONSTANT HEAD     =           0.0000         CONSTANT HEAD     =           0.0000
     HEAD DEP BOUNDS     =       50021.2812       HEAD DEP BOUNDS     =           0.2874
      STREAM LEAKAGE     =     1841208.7500        STREAM LEAKAGE     =           9.9668
        UZF RECHARGE     =           0.0000          UZF RECHARGE     =           0.0000
               GW ET     =           0.0000                 GW ET     =           0.0000
     SURFACE LEAKAGE     =           0.0000       SURFACE LEAKAGE     =           0.0000
           AG WELLS      =           0.0000             AG WELLS      =           0.0000

               TOTAL OUT =     2093228.8750                 TOTAL OUT =          12.5584

                IN - OUT =         -42.3750                  IN - OUT =      -4.8447E-04

     PERCENT DISCREPANCY =          -0.00         PERCENT DISCREPANCY =          -0.00






         TIME SUMMARY AT END OF TIME STEP    1 IN STRESS PERIOD    2
                    SECONDS     MINUTES      HOURS       DAYS        YEARS
                    -----------------------------------------------------------
   TIME STEP LENGTH  87667.      1461.1      24.352      1.0147     2.77799E-03
 STRESS PERIOD TIME  87667.      1461.1      24.352      1.0147     2.77799E-03
         TOTAL TIME 1.74067E+05  2901.1      48.352      2.0147     5.51584E-03
1
 
 SOLVING FOR HEAD 
                                                   Max.-Head-Change                         Max.-Flux-Residual
  Residual-Control   Outer-Iter.   Inner-Iter.     Column Row Layer    Maximum-Head-Change  Column Row Layer    Maximum-Flux-Residual          L2-NORM 
          0                 1           2             2   13     1       0.5599485135E-02       4   13    1         0.3174745166E+00      0.6799945182E+00
          0                 2           2             4   13     1      -0.5332830314E-03       4   13    1        -0.3142407070E-01      0.6665652851E-01
          0                 3           1             4   13     1       0.3579170672E-04       4   13    1         0.2168417202E-02      0.4540773980E-02

    ------------------------------------------------
       NWT REQUIRED            3 OUTER ITERATIONS 
       AND A TOTAL OF          5 INNER ITERATIONS.
    ------------------------------------------------

 NO OUTPUT CONTROL FOR STRESS PERIOD    2   TIME STEP    2
 
 SOLVING FOR HEAD 
                                                   Max.-Head-Change                         Max.-Flux-Residual
  Residual-Control   Outer-Iter.   Inner-Iter.     Column Row Layer    Maximum-Head-Change  Column Row Layer    Maximum-Flux-Residual          L2-NORM 
          0                 1           2             2   13     1       0.5185884406E-02       2   13    1         0.2917485494E+00      0.6422044993E+00
          0                 2           2             4   13     1      -0.4838831011E-03       4   13    1        -0.2849660932E-01      0.6300684429E-01
          0                 3           1             4   13     1       0.3247889756E-04       4   13    1         0.1966573949E-02      0.4297037243E-02

    ------------------------------------------------
       NWT REQUIRED            3 OUTER ITERATIONS 
       AND A TOTAL OF          5 INNER ITERATIONS.
    ------------------------------------------------

 NO OUTPUT CONTROL FOR STRESS PERIOD    2   TIME STEP    3
 
 SOLVING FOR HEAD 
                                                   Max.-Head-Change                         Max.-Flux-Residual
  Residual-Control   Outer-Iter.   Inner-Iter.     Column Row Layer    Maximum-Head-Change  Column Row Layer    Maximum-Flux-Residual          L2-NORM 
          0                 1           2             2   13     1       0.4803154029E-02       2   13    1         0.2701873240E+00      0.6081803872E+00
          0                 2           2             2   13     1      -0.4473179284E-03       2   13    1        -0.2586578846E-01      0.5972310199E-01
          0                 3           1             4   13     1       0.2948219716E-04       4   13    1         0.1784025593E-02      0.4078588667E-02

    ------------------------------------------------
       NWT REQUIRED            3 OUTER ITERATIONS 
       AND A TOTAL OF          5 INNER ITERATIONS.
    ------------------------------------------------

 NO OUTPUT CONTROL FOR STRESS PERIOD    2   TIME STEP    4
 
 SOLVING FOR HEAD 
                                                   Max.-Head-Change                         Max.-Flux-Residual
  Residual-Control   Outer-Iter.   Inner-Iter.     Column Row Layer    Maximum-Head-Change  Column Row Layer    Maximum-Flux-Residual          L2-NORM 
          0                 1           2             2   13     1       0.4449040972E-02       2   13    1         0.2502395760E+00      0.5775475204E+00
          0                 2           2             2   13     1      -0.4144801037E-03       2   13    1        -0.2396415219E-01      0.5676821826E-01
          0                 3           1             4   13     1       0.2676866390E-04       4   13    1         0.1618800686E-02      0.3881521732E-02

    ------------------------------------------------
       NWT REQUIRED            3 OUTER ITERATIONS 
       AND A TOTAL OF          5 INNER ITERATIONS.
    ------------------------------------------------

 NO OUTPUT CONTROL FOR STRESS PERIOD    2   TIME STEP    5
 
 SOLVING FOR HEAD 
                                                   Max.-Head-Change                         Max.-Flux-Residual
  Residual-Control   Outer-Iter.   Inner-Iter.     Column Row Layer    Maximum-Head-Change  Column Row Layer    Maximum-Flux-Residual          L2-NORM 
          0                 1           2             2   13     1       0.4121446218E-02       2   13    1         0.2317868444E+00      0.5499873162E+00
          0                 2           2             2   13     1      -0.3841207992E-03       2   13    1        -0.2220618270E-01      0.5411296304E-01
          0                 3           1             2    2     1       0.2466198281E-04       4   13    1         0.1471168053E-02      0.3706003663E-02

    ------------------------------------------------
       NWT REQUIRED            3 OUTER ITERATIONS 
       AND A TOTAL OF          5 INNER ITERATIONS.
    ------------------------------------------------

 NO OUTPUT CONTROL FOR STRESS PERIOD    2   TIME STEP    6
 
 SOLVING FOR HEAD 
                                                   Max.-Head-Change                         Max.-Flux-Residual
  Residual-Control   Outer-Iter.   Inner-Iter.     Column Row Layer    Maximum-Head-Change  Column Row Layer    Maximum-Flux-Residual          L2-NORM 
          0                 1           2             2   13     1       0.3818221148E-02       2   13    1         0.2147078483E+00      0.5251892090E+00
          0                 2           2             2    2     1      -0.3594198925E-03       2   13    1        -0.2057585153E-01      0.5172403295E-01
          0                 3           1             2    2     1       0.2447515648E-04       2   13    1         0.1355394319E-02      0.3547183221E-02

    ------------------------------------------------
       NWT REQUIRED            3 OUTER ITERATIONS 
       AND A TOTAL OF          5 INNER ITERATIONS.
    ------------------------------------------------

 NO OUTPUT CONTROL FOR STRESS PERIOD    2   TIME STEP    7
 
 SOLVING FOR HEAD 
                                                   Max.-Head-Change                         Max.-Flux-Residual
  Residual-Control   Outer-Iter.   Inner-Iter.     Column Row Layer    Maximum-Head-Change  Column Row Layer    Maximum-Flux-Residual          L2-NORM 
          0                 1           2             2    2     1       0.3667085789E-02       2   13    1         0.1989108451E+00      0.5028814641E+00
          0                 2           2             2    2     1      -0.3567080353E-03       2    2    1        -0.1917041004E-01      0.4957487384E-01
          0                 3           1             2    2     1       0.2429048908E-04       2    2    1         0.1341928919E-02      0.3403801657E-02

    ------------------------------------------------
       NWT REQUIRED            3 OUTER ITERATIONS 
       AND A TOTAL OF          5 INNER ITERATIONS.
    ------------------------------------------------

 NO OUTPUT CONTROL FOR STRESS PERIOD    2   TIME STEP    8
 
 SOLVING FOR HEAD 
                                                   Max.-Head-Change                         Max.-Flux-Residual
  Residual-Control   Outer-Iter.   Inner-Iter.     Column Row Layer    Maximum-Head-Change  Column Row Layer    Maximum-Flux-Residual          L2-NORM 
          0                 1           2             2    2     1       0.3639701008E-02       2    2    1         0.1902627778E+00      0.4828023298E+00
          0                 2           2             2    2     1      -0.3540442310E-03       2    2    1        -0.1902631586E-01      0.4764139681E-01
          0                 3           1             2    2     1       0.2410909393E-04       2    2    1         0.1331842321E-02      0.3275277796E-02

    ------------------------------------------------
       NWT REQUIRED            3 OUTER ITERATIONS 
       AND A TOTAL OF          5 INNER ITERATIONS.
    ------------------------------------------------

 NO OUTPUT CONTROL FOR STRESS PERIOD    2   TIME STEP    9
 
 SOLVING FOR HEAD 
                                                   Max.-Head-Change                         Max.-Flux-Residual
  Residual-Control   Outer-Iter.   Inner-Iter.     Column Row Layer    Maximum-Head-Change  Column Row Layer    Maximum-Flux-Residual          L2-NORM 
          0                 1           2             2    2     1       0.3612629094E-02       2    2    1         0.1888383547E+00      0.4647309080E+00
          0                 2           2             2    2     1      -0.3514108598E-03       2    2    1        -0.1888387273E-01      0.4590245170E-01
          0                 3           1             2    2     1       0.2392977109E-04       2    2    1         0.1321871310E-02      0.3160637835E-02

    ------------------------------------------------
       NWT REQUIRED            3 OUTER ITERATIONS 
       AND A TOTAL OF          5 INNER ITERATIONS.
    ------------------------------------------------

 NO OUTPUT CONTROL FOR STRESS PERIOD    2   TIME STEP   10
 
 SOLVING FOR HEAD 
                                                   Max.-Head-Change                         Max.-Flux-Residual
  Residual-Control   Outer-Iter.   Inner-Iter.     Column Row Layer    Maximum-Head-Change  Column Row Layer    Maximum-Flux-Residual          L2-NORM 
          0                 1           2             2    2     1       0.3585951204E-02       2    2    1         0.1874347047E+00      0.4484530803E+00
          0                 2           2             2    2     1      -0.3488158168E-03       2    2    1        -0.1874350697E-01      0.4433586465E-01
          0                 3           1             2    2     1       0.2375305852E-04       2    2    1         0.1312045692E-02      0.3055843380E-02

    ------------------------------------------------
       NWT REQUIRED            3 OUTER ITERATIONS 
       AND A TOTAL OF          5 INNER ITERATIONS.
    ------------------------------------------------

 NO OUTPUT CONTROL FOR STRESS PERIOD    2   TIME STEP   11
 
 SOLVING FOR HEAD 
                                                   Max.-Head-Change                         Max.-Flux-Residual
  Residual-Control   Outer-Iter.   Inner-Iter.     Column Row Layer    Maximum-Head-Change  Column Row Layer    Maximum-Flux-Residual          L2-NORM 
          0                 1           2             2    2     1       0.3559571552E-02       2    2    1         0.1860468156E+00      0.4337718088E+00
          0                 2           2             2    2     1      -0.3462497853E-03       2    2    1        -0.1860471735E-01      0.4292387309E-01
          0                 3           1             2    2     1       0.2357832146E-04       2    2    1         0.1302330426E-02      0.2962625798E-02

    ------------------------------------------------
       NWT REQUIRED            3 OUTER ITERATIONS 
       AND A TOTAL OF          5 INNER ITERATIONS.
    ------------------------------------------------

 NO OUTPUT CONTROL FOR STRESS PERIOD    2   TIME STEP   12
 
 SOLVING FOR HEAD 
                                                   Max.-Head-Change                         Max.-Flux-Residual
  Residual-Control   Outer-Iter.   Inner-Iter.     Column Row Layer    Maximum-Head-Change  Column Row Layer    Maximum-Flux-Residual          L2-NORM 
          0                 1           2             2    2     1       0.3533663503E-02       2    2    1         0.1846837273E+00      0.4205329170E+00
          0                 2           2             2    2     1      -0.3437296279E-03       2    2    1        -0.1846840780E-01      0.4164860976E-01
          0                 3           1             2    2     1       0.2340670825E-04       2    2    1         0.1292788776E-02      0.2877611772E-02

    ------------------------------------------------
       NWT REQUIRED            3 OUTER ITERATIONS 
       AND A TOTAL OF          5 INNER ITERATIONS.
    ------------------------------------------------

 NO OUTPUT CONTROL FOR STRESS PERIOD    2   TIME STEP   13
 
 SOLVING FOR HEAD 
                                                   Max.-Head-Change                         Max.-Flux-Residual
  Residual-Control   Outer-Iter.   Inner-Iter.     Column Row Layer    Maximum-Head-Change  Column Row Layer    Maximum-Flux-Residual          L2-NORM 
          0                 1           2             2    2     1       0.3508043674E-02       2    2    1         0.1833358706E+00      0.4085690191E+00
          0                 2           2             2    2     1      -0.3412375067E-03       2    2    1        -0.1833362145E-01      0.4049741654E-01
          0                 3           1             2    2     1       0.2323700428E-04       2    2    1         0.1283353723E-02      0.2801427160E-02

    ------------------------------------------------
       NWT REQUIRED            3 OUTER ITERATIONS 
       AND A TOTAL OF          5 INNER ITERATIONS.
    ------------------------------------------------

 NO OUTPUT CONTROL FOR STRESS PERIOD    2   TIME STEP   14
 
 SOLVING FOR HEAD 
                                                   Max.-Head-Change                         Max.-Flux-Residual
  Residual-Control   Outer-Iter.   Inner-Iter.     Column Row Layer    Maximum-Head-Change  Column Row Layer    Maximum-Flux-Residual          L2-NORM 
          0                 1           2             2    2     1       0.3482793688E-02       2    2    1         0.1820075095E+00      0.3977359959E+00
          0                 2           2             2    2     1      -0.3387813617E-03       2    2    1        -0.1820078465E-01      0.3945385013E-01
          0                 3           1             2    2     1       0.2306975036E-04       2    2    1         0.1274055180E-02      0.2732021932E-02

    ------------------------------------------------
       NWT REQUIRED            3 OUTER ITERATIONS 
       AND A TOTAL OF          5 INNER ITERATIONS.
    ------------------------------------------------

 NO OUTPUT CONTROL FOR STRESS PERIOD    2   TIME STEP   15
 
 SOLVING FOR HEAD 
                                                   Max.-Head-Change                         Max.-Flux-Residual
  Residual-Control   Outer-Iter.   Inner-Iter.     Column Row Layer    Maximum-Head-Change  Column Row Layer    Maximum-Flux-Residual          L2-NORM 
          0                 1           2             2    2     1       0.3457907880E-02       2    2    1         0.1806983244E+00      0.3879262877E+00
          0                 2           2             2    2     1      -0.3363606409E-03       2    2    1        -0.1806986548E-01      0.3850829212E-01
          0                 3           1             2    2     1       0.2290490790E-04       2    2    1         0.1264890818E-02      0.2668386228E-02

    ------------------------------------------------
       NWT REQUIRED            3 OUTER ITERATIONS 
       AND A TOTAL OF          5 INNER ITERATIONS.
    ------------------------------------------------

 NO OUTPUT CONTROL FOR STRESS PERIOD    2   TIME STEP   16
 
 SOLVING FOR HEAD 
                                                   Max.-Head-Change                         Max.-Flux-Residual
  Residual-Control   Outer-Iter.   Inner-Iter.     Column Row Layer    Maximum-Head-Change  Column Row Layer    Maximum-Flux-Residual          L2-NORM 
          0                 1           2             2    2     1       0.3433380672E-02       2    2    1         0.1794080215E+00      0.3790053448E+00
          0                 2           2             2    2     1      -0.3339748030E-03       2    2    1        -0.1794083456E-01      0.3764764780E-01
          0                 3           1             2    2     1       0.2274244116E-04       2    2    1         0.1255858658E-02      0.2612327691E-02

    ------------------------------------------------
       NWT REQUIRED            3 OUTER ITERATIONS 
       AND A TOTAL OF          5 INNER ITERATIONS.
    ------------------------------------------------

 NO OUTPUT CONTROL FOR STRESS PERIOD    2   TIME STEP   17
 
 SOLVING FOR HEAD 
                                                   Max.-Head-Change                         Max.-Flux-Residual
  Residual-Control   Outer-Iter.   Inner-Iter.     Column Row Layer    Maximum-Head-Change  Column Row Layer    Maximum-Flux-Residual          L2-NORM 
          0                 1           2             2    2     1       0.3409205831E-02       2    2    1         0.1781363116E+00      0.3708959238E+00
          0                 2           2             2    2     1      -0.3316232403E-03       2    2    1        -0.1781366293E-01      0.3686551279E-01
          0                 3           1             2    2     1       0.2258230874E-04       2    2    1         0.1246956648E-02      0.2559373117E-02

    ------------------------------------------------
       NWT REQUIRED            3 OUTER ITERATIONS 
       AND A TOTAL OF          5 INNER ITERATIONS.
    ------------------------------------------------

 NO OUTPUT CONTROL FOR STRESS PERIOD    2   TIME STEP   18
 
 SOLVING FOR HEAD 
                                                   Max.-Head-Change                         Max.-Flux-Residual
  Residual-Control   Outer-Iter.   Inner-Iter.     Column Row Layer    Maximum-Head-Change  Column Row Layer    Maximum-Flux-Residual          L2-NORM 
          0                 1           2             2    2     1       0.3385290862E-02       2    2    1         0.1768783193E+00      0.3634934776E+00
          0                 2           2             2    2     1      -0.3292969569E-03       2    2    1        -0.1768786309E-01      0.3614994633E-01
          0                 3           1             2    2     1       0.2242389740E-04       2    2    1         0.1238150655E-02      0.2512089789E-02

    ------------------------------------------------
       NWT REQUIRED            3 OUTER ITERATIONS 
       AND A TOTAL OF          5 INNER ITERATIONS.
    ------------------------------------------------

 NO OUTPUT CONTROL FOR STRESS PERIOD    2   TIME STEP   19
 
 SOLVING FOR HEAD 
                                                   Max.-Head-Change                         Max.-Flux-Residual
  Residual-Control   Outer-Iter.   Inner-Iter.     Column Row Layer    Maximum-Head-Change  Column Row Layer    Maximum-Flux-Residual          L2-NORM 
          0                 1           2             2    2     1       0.3361717890E-02       2    2    1         0.1756383533E+00      0.3567232374E+00
          0                 2           2             2    2     1      -0.3270039399E-03       2    2    1        -0.1756386587E-01      0.3549550141E-01
          0                 3           1             2    2     1       0.2226775150E-04       2    2    1         0.1229470848E-02      0.2468656893E-02

    ------------------------------------------------
       NWT REQUIRED            3 OUTER ITERATIONS 
       AND A TOTAL OF          5 INNER ITERATIONS.
    ------------------------------------------------

 NO OUTPUT CONTROL FOR STRESS PERIOD    2   TIME STEP   20
 
 SOLVING FOR HEAD 
                                                   Max.-Head-Change                         Max.-Flux-Residual
  Residual-Control   Outer-Iter.   Inner-Iter.     Column Row Layer    Maximum-Head-Change  Column Row Layer    Maximum-Flux-Residual          L2-NORM 
          0                 1           2             2    2     1       0.3338481753E-02       2    2    1         0.1744161195E+00      0.3505173767E+00
          0                 2           2             2    2     1      -0.3247436885E-03       2    2    1        -0.1744164192E-01      0.3489453705E-01
          0                 3           1             2    2     1       0.2211383624E-04       2    2    1         0.1220915152E-02      0.2428186917E-02

    ------------------------------------------------
       NWT REQUIRED            3 OUTER ITERATIONS 
       AND A TOTAL OF          5 INNER ITERATIONS.
    ------------------------------------------------

 NO OUTPUT CONTROL FOR STRESS PERIOD    2   TIME STEP   21
 
 SOLVING FOR HEAD 
                                                   Max.-Head-Change                         Max.-Flux-Residual
  Residual-Control   Outer-Iter.   Inner-Iter.     Column Row Layer    Maximum-Head-Change  Column Row Layer    Maximum-Flux-Residual          L2-NORM 
          0                 1           2             2    2     1       0.3315576565E-02       2    2    1         0.1732113502E+00      0.3448121673E+00
          0                 2           2             2    2     1      -0.3225156302E-03       2    2    1        -0.1732116441E-01      0.3434185142E-01
          0                 3           1             2    2     1       0.2196211495E-04       2    2    1         0.1212481770E-02      0.2391410482E-02

    ------------------------------------------------
       NWT REQUIRED            3 OUTER ITERATIONS 
       AND A TOTAL OF          5 INNER ITERATIONS.
    ------------------------------------------------

 NO OUTPUT CONTROL FOR STRESS PERIOD    2   TIME STEP   22
 
 SOLVING FOR HEAD 
                                                   Max.-Head-Change                         Max.-Flux-Residual
  Residual-Control   Outer-Iter.   Inner-Iter.     Column Row Layer    Maximum-Head-Change  Column Row Layer    Maximum-Flux-Residual          L2-NORM 
          0                 1           2             2    2     1       0.3292997315E-02       2    2    1         0.1720237402E+00      0.3395514357E+00
          0                 2           2             2    2     1      -0.3203192764E-03       2    2    1        -0.1720240288E-01      0.3383130430E-01
          0                 3           1             2    2     1       0.2181255093E-04       2    2    1         0.1204168445E-02      0.2356589915E-02

    ------------------------------------------------
       NWT REQUIRED            3 OUTER ITERATIONS 
       AND A TOTAL OF          5 INNER ITERATIONS.
    ------------------------------------------------

 NO OUTPUT CONTROL FOR STRESS PERIOD    2   TIME STEP   23
 
 SOLVING FOR HEAD 
                                                   Max.-Head-Change                         Max.-Flux-Residual
  Residual-Control   Outer-Iter.   Inner-Iter.     Column Row Layer    Maximum-Head-Change  Column Row Layer    Maximum-Flux-Residual          L2-NORM 
          0                 1           2             2    2     1       0.3270656481E-02       2    2    1         0.1708487113E+00      0.3346879897E+00
          0                 2           2             2    2     1      -0.3181461140E-03       2    2    1        -0.1708489944E-01      0.3335830768E-01
          0                 3           1             2    2     1       0.2166456671E-04       2    2    1         0.1195943205E-02      0.2325026302E-02

    ------------------------------------------------
       NWT REQUIRED            3 OUTER ITERATIONS 
       AND A TOTAL OF          5 INNER ITERATIONS.
    ------------------------------------------------

 NO OUTPUT CONTROL FOR STRESS PERIOD    2   TIME STEP   24
 
 SOLVING FOR HEAD 
                                                   Max.-Head-Change                         Max.-Flux-Residual
  Residual-Control   Outer-Iter.   Inner-Iter.     Column Row Layer    Maximum-Head-Change  Column Row Layer    Maximum-Flux-Residual          L2-NORM 
          0                 1           2             2    2     1       0.3248714730E-02       2    2    1         0.1696946811E+00      0.3301814118E+00
          0                 2           2             2    2     1      -0.3160117719E-03       2    2    1        -0.1696949589E-01      0.3291993999E-01
          0                 3           1             2    2     1       0.2151922589E-04       2    2    1         0.1187864950E-02      0.2295240678E-02

    ------------------------------------------------
       NWT REQUIRED            3 OUTER ITERATIONS 
       AND A TOTAL OF          5 INNER ITERATIONS.
    ------------------------------------------------

 NO OUTPUT CONTROL FOR STRESS PERIOD    2   TIME STEP   25
 
 SOLVING FOR HEAD 
                                                   Max.-Head-Change                         Max.-Flux-Residual
  Residual-Control   Outer-Iter.   Inner-Iter.     Column Row Layer    Maximum-Head-Change  Column Row Layer    Maximum-Flux-Residual          L2-NORM 
          0                 1           2             2    2     1       0.3226996200E-02       2    2    1         0.1685524713E+00      0.3259930173E+00
          0                 2           2             2    2     1      -0.3138991437E-03       2    2    1        -0.1685527439E-01      0.3251194433E-01
          0                 3           1             2    2     1       0.2137536404E-04       2    2    1         0.1179869468E-02      0.2267923572E-02

    ------------------------------------------------
       NWT REQUIRED            3 OUTER ITERATIONS 
       AND A TOTAL OF          5 INNER ITERATIONS.
    ------------------------------------------------

 NO OUTPUT CONTROL FOR STRESS PERIOD    2   TIME STEP   26
 
 SOLVING FOR HEAD 
                                                   Max.-Head-Change                         Max.-Flux-Residual
  Residual-Control   Outer-Iter.   Inner-Iter.     Column Row Layer    Maximum-Head-Change  Column Row Layer    Maximum-Flux-Residual          L2-NORM 
          0                 1           2             2    2     1       0.3205584433E-02       2    2    1         0.1674263883E+00      0.3220846077E+00
          0                 2           2             2    2     1      -0.3118163549E-03       2    2    1        -0.1674266559E-01      0.3213058254E-01
          0                 3           1             2    2     1       0.2123353379E-04       2    2    1         0.1171986842E-02      0.2242117281E-02

    ------------------------------------------------
       NWT REQUIRED            3 OUTER ITERATIONS 
       AND A TOTAL OF          5 INNER ITERATIONS.
    ------------------------------------------------

 NO OUTPUT CONTROL FOR STRESS PERIOD    2   TIME STEP   27
 
 SOLVING FOR HEAD 
                                                   Max.-Head-Change                         Max.-Flux-Residual
  Residual-Control   Outer-Iter.   Inner-Iter.     Column Row Layer    Maximum-Head-Change  Column Row Layer    Maximum-Flux-Residual          L2-NORM 
          0                 1           2             2    2     1       0.3184474025E-02       2    2    1         0.1663162106E+00      0.3184304815E+00
          0                 2           2             2    2     1      -0.3097628807E-03       2    2    1        -0.1663164734E-01      0.3177337357E-01
          0                 3           1             2    2     1       0.2109369989E-04       2    2    1         0.1164215575E-02      0.2217224628E-02

    ------------------------------------------------
       NWT REQUIRED            3 OUTER ITERATIONS 
       AND A TOTAL OF          5 INNER ITERATIONS.
    ------------------------------------------------

 NO OUTPUT CONTROL FOR STRESS PERIOD    2   TIME STEP   28
 
 SOLVING FOR HEAD 
                                                   Max.-Head-Change                         Max.-Flux-Residual
  Residual-Control   Outer-Iter.   Inner-Iter.     Column Row Layer    Maximum-Head-Change  Column Row Layer    Maximum-Flux-Residual          L2-NORM 
          0                 1           2             2    2     1       0.3163660535E-02       2    2    1         0.1652216580E+00      0.3150071140E+00
          0                 2           2             2    2     1      -0.3077382883E-03       2    2    1        -0.1652219160E-01      0.3143872281E-01
          0                 3           1             2    2     1       0.2095583274E-04       2    2    1         0.1156553659E-02      0.2195039549E-02

    ------------------------------------------------
       NWT REQUIRED            3 OUTER ITERATIONS 
       AND A TOTAL OF          5 INNER ITERATIONS.
    ------------------------------------------------

 NO OUTPUT CONTROL FOR STRESS PERIOD    2   TIME STEP   29
 
 SOLVING FOR HEAD 
                                                   Max.-Head-Change                         Max.-Flux-Residual
  Residual-Control   Outer-Iter.   Inner-Iter.     Column Row Layer    Maximum-Head-Change  Column Row Layer    Maximum-Flux-Residual          L2-NORM 
          0                 1           2             2    2     1       0.3143052426E-02       2    2    1         0.1641379469E+00      0.3117834489E+00
          0                 2           2             2    2     1      -0.3057336742E-03       2    2    1        -0.1641382002E-01      0.3112282237E-01
          0                 3           1             2    2     1       0.2081932575E-04       2    2    1         0.1148967647E-02      0.2173514920E-02

    ------------------------------------------------
       NWT REQUIRED            3 OUTER ITERATIONS 
       AND A TOTAL OF          5 INNER ITERATIONS.
    ------------------------------------------------

 NO OUTPUT CONTROL FOR STRESS PERIOD    2   TIME STEP   30



 STREAM LISTING     PERIOD      2   STEP       30

 LAYER ROW COL. STREAM  RCH.  FLOW INTO     FLOW TO   FLOW OUT OF   OVRLND.     DIRECT     STREAM       STREAM     STREAM     STREAM   STREAMBED  STREAMBED
                SEG.NO.  NO.  STRM. RCH.    AQUIFER    STRM. RCH.    RUNOFF     PRECIP       ET          HEAD       DEPTH      WIDTH   CONDCTNC.   GRADIENT

   1    1    1     1     1    2.2000E+01  2.3088E-01   2.1769E+01  0.000E+00  0.000E+00  0.000E+00  1.09418E+03  1.132E+00  1.242E+01  5.588E-02  1.377E+00
   1    2    2     1     2    2.1769E+01  3.5689E-01   2.1412E+01  0.000E+00  0.000E+00  0.000E+00  1.08919E+03  1.127E+00  1.235E+01  8.648E-02  1.376E+00
   1    3    3     1     3    2.1412E+01  3.0372E-01   2.1109E+01  0.000E+00  0.000E+00  0.000E+00  1.08354E+03  1.121E+00  1.228E+01  7.369E-02  1.374E+00
   1    3    4     1     4    2.1109E+01  2.7914E-01   2.0829E+01  0.000E+00  0.000E+00  0.000E+00  1.07852E+03  1.117E+00  1.222E+01  6.781E-02  1.372E+00
   1    4    5     2     1    1.8829E+01  3.1306E-01   1.8516E+01  0.000E+00  0.000E+00  0.000E+00  1.07295E+03  1.014E+00  1.200E+01  7.800E-02  1.338E+00
   1    5    6     2     2    1.8516E+01  2.4027E-01   1.8276E+01  0.000E+00  0.000E+00  0.000E+00  1.06751E+03  1.005E+00  1.200E+01  6.000E-02  1.335E+00
   1    6    6     2     3    1.8276E+01  2.3980E-01   1.8036E+01  0.000E+00  0.000E+00  0.000E+00  1.06279E+03  9.967E-01  1.200E+01  6.000E-02  1.332E+00
   1    7    6     2     4    1.8036E+01  2.3933E-01   1.7797E+01  0.000E+00  0.000E+00  0.000E+00  1.05806E+03  9.888E-01  1.200E+01  6.000E-02  1.330E+00
   1    8    6     2     5    1.7797E+01  2.3885E-01   1.7558E+01  0.000E+00  0.000E+00  0.000E+00  1.05334E+03  9.808E-01  1.200E+01  6.000E-02  1.327E+00
   1    3    5     3     1    2.0000E+00  2.8252E-01   1.7175E+00  0.000E+00  0.000E+00  0.000E+00  1.07555E+03  1.909E+00  9.636E+00  7.227E-02  1.955E+00
   1    3    6     3     2    1.7175E+00  2.4905E-01   1.4684E+00  0.000E+00  0.000E+00  0.000E+00  1.07264E+03  1.727E+00  8.909E+00  6.682E-02  1.864E+00
   1    3    7     3     3    1.4684E+00  1.9718E-01   1.2712E+00  0.000E+00  0.000E+00  0.000E+00  1.06987E+03  1.555E+00  8.218E+00  5.547E-02  1.777E+00
   1    4    8     3     4    1.2712E+00  2.2567E-01   1.0456E+00  0.000E+00  0.000E+00  0.000E+00  1.06682E+03  1.364E+00  7.455E+00  6.709E-02  1.682E+00
   1    5    8     3     5    1.0456E+00  1.5790E-01   8.8768E-01  0.000E+00  0.000E+00  0.000E+00  1.06362E+03  1.164E+00  6.655E+00  4.991E-02  1.582E+00
   1    6    8     3     6    8.8768E-01  5.5980E-02   8.3170E-01  0.000E+00  0.000E+00  0.000E+00  1.06158E+03  1.036E+00  6.145E+00  1.844E-02  1.518E+00
   1    5   10     4     1    1.0000E+01  9.0919E-02   9.9091E+00  0.000E+00  0.000E+00  0.000E+00  1.07836E+03  6.368E-01  1.000E+01  2.500E-02  1.212E+00
   1    5    9     4     2    9.9091E+00  1.8158E-01   9.7275E+00  0.000E+00  0.000E+00  0.000E+00  1.07154E+03  6.315E-01  1.000E+01  5.000E-02  1.211E+00
   1    6    8     4     3    9.7275E+00  1.2689E-01   9.6006E+00  0.000E+00  0.000E+00  0.000E+00  1.06381E+03  6.256E-01  1.000E+01  3.500E-02  1.209E+00
   1    6    8     5     1    1.0432E+01  2.2686E-01   1.0205E+01  0.000E+00  0.000E+00  0.000E+00  1.05868E+03  6.790E-01  1.542E+01  6.166E-02  1.226E+00
   1    7    7     5     2    1.0205E+01  2.7894E-01   9.9265E+00  0.000E+00  0.000E+00  0.000E+00  1.05417E+03  6.732E-01  1.519E+01  7.594E-02  1.224E+00
   1    8    7     5     3    9.9265E+00  1.9221E-01   9.7343E+00  0.000E+00  0.000E+00  0.000E+00  1.04992E+03  6.676E-01  1.497E+01  5.241E-02  1.223E+00
   1    8    6     5     4    9.7343E+00  1.3577E-01   9.5985E+00  0.000E+00  0.000E+00  0.000E+00  1.04691E+03  6.637E-01  1.482E+01  3.706E-02  1.221E+00
   1    9    6     6     1    2.7157E+01  2.5677E-01   2.6900E+01  0.000E+00  0.000E+00  0.000E+00  1.04401E+03  1.280E+00  1.200E+01  6.000E-02  1.427E+00
   1   10    7     6     2    2.6900E+01  2.5634E-01   2.6644E+01  0.000E+00  0.000E+00  0.000E+00  1.03945E+03  1.272E+00  1.200E+01  6.000E-02  1.424E+00
   1   11    7     6     3    2.6644E+01  2.5590E-01   2.6388E+01  0.000E+00  0.000E+00  0.000E+00  1.03490E+03  1.265E+00  1.200E+01  6.000E-02  1.422E+00
   1   12    7     6     4    2.6388E+01  2.5546E-01   2.6132E+01  0.000E+00  0.000E+00  0.000E+00  1.03035E+03  1.258E+00  1.200E+01  6.000E-02  1.419E+00
   1   13    7     6     5    2.6132E+01  1.0938E-03   2.6131E+01  0.000E+00  0.000E+00  0.000E+00  1.02716E+03  1.254E+00  1.200E+01  2.400E-02  1.519E-02
   1   14    9     7     1    1.5000E+02  1.3306E+00   1.4867E+02  0.000E+00  0.000E+00  0.000E+00  1.03987E+03  2.288E+00  5.529E+01  5.593E-01  7.930E-01
   1   13    8     7     2    1.4867E+02  1.8228E+00   1.4685E+02  0.000E+00  0.000E+00  0.000E+00  1.03478E+03  2.279E+00  5.526E+01  6.148E-01  9.883E-01
   1   13    7     7     3    1.4685E+02  1.4367E+00   1.4541E+02  0.000E+00  0.000E+00  0.000E+00  1.02969E+03  2.271E+00  5.522E+01  5.585E-01  8.575E-01
   1   13    6     8     1    1.7154E+02  8.8336E-01   1.7066E+02  0.000E+00  0.000E+00  0.000E+00  1.02483E+03  2.959E+00  4.291E+01  4.373E-01  6.734E-01
   1   13    5     8     2    1.7066E+02  1.2909E-01   1.7053E+02  0.000E+00  0.000E+00  0.000E+00  1.01858E+03  2.956E+00  4.286E+01  4.368E-01  9.852E-02
   1   13    4     8     3    1.7053E+02 -2.6157E+00   1.7314E+02  0.000E+00  0.000E+00  0.000E+00  1.01234E+03  2.964E+00  4.298E+01  4.380E+00 -1.991E-01
   1   13    3     8     4    1.7314E+02 -3.7119E+00   1.7686E+02  0.000E+00  0.000E+00  0.000E+00  1.00611E+03  2.984E+00  4.327E+01  4.410E+00 -2.806E-01
   1   13    2     8     5    1.7686E+02 -2.5514E+00   1.7941E+02  0.000E+00  0.000E+00  0.000E+00  9.99879E+02  3.004E+00  4.356E+01  4.439E+00 -1.916E-01
   1   13    1     8     6    1.7941E+02 -1.9322E+00   1.8134E+02  0.000E+00  0.000E+00  0.000E+00  9.94893E+02  3.019E+00  4.377E+01  2.676E+00 -2.407E-01





UNSATURATED ZONE PACKAGE VOLUMETRIC BUDGET FOR  TIME STEP    30 STRESS PERIOD    2
  ------------------------------------------------------------------------------



     CUMULATIVE VOLUMES      L**3       RATES FOR THIS TIME STEP      L**3/T
     ------------------                 ------------------------

           IN:                                      IN:
           ---                                      ---
        INFILTRATION =    11664948.5581          INFILTRATION =           4.4075

          OUT:                                     OUT:
          ----                                     ----
              UZF ET =     1906749.9366                UZF ET =           0.7250
        UZF RECHARGE =       73224.0000          UZF RECHARGE =       0.0000E+00

            IN - OUT =     9684974.6215              IN - OUT =           3.6825

          STORAGE:                                 STORAGE:
          --------                                 --------
      STORAGE CHANGE =     9684974.5595        STORAGE CHANGE =           3.6825

 PERCENT DISCREPANCY IS DIFFERENCE BETWEEN IN-OUT MINUS CHANGE IN STORAGE
 DIVIDED BY THE AVERAGE OF IN AND OUT TIMES 100

 PERCENT DISCREPANCY =           0.00     PERCENT DISCREPANCY =           0.00






1
  VOLUMETRIC BUDGET FOR AGRICULTURAL FIELDS AT TIME STEP   30, STRESS PERIOD   2
  ------------------------------------------------------------------------------

     CUMULATIVE VOLUMES      L**3       RATES FOR THIS TIME STEP      L**3/T
     ------------------                 ------------------------

           IN:                                      IN:
           ---                                      ---
               AG WELLS  =           0.0000                 AG WELLS  =           0.0000
      DIVERSION SEGMENTS =           0.0000        DIVERSION SEGMENTS =           0.0000
           GW IRRIGATION =           0.0000             GW IRRIGATION =           0.0000
           SW IRRIGATION =           0.0000             SW IRRIGATION =           0.0000
        SYSTEM LOSSES GW =           0.0000          SYSTEM LOSSES GW =           0.0000
        SYSTEM LOSSES SW =           0.0000          SYSTEM LOSSES SW =           0.0000

                TOTAL IN =           0.0000                  TOTAL IN =           0.0000

          OUT:                                     OUT:
          ----                                     ----
               AG WELLS  =           0.0000                 AG WELLS  =           0.0000
      DIVERSION SEGMENTS =           0.0000        DIVERSION SEGMENTS =           0.0000
           GW IRRIGATION =           0.0000             GW IRRIGATION =           0.0000
           SW IRRIGATION =           0.0000             SW IRRIGATION =           0.0000
        SYSTEM LOSSES GW =           0.0000          SYSTEM LOSSES GW =           0.0000
        SYSTEM LOSSES SW =           0.0000          SYSTEM LOSSES SW =           0.0000

               TOTAL OUT =           0.0000                 TOTAL OUT =           0.0000

                IN - OUT =           0.0000                  IN - OUT =           0.0000

     PERCENT DISCREPANCY =           0.00         PERCENT DISCREPANCY =           0.00



1
  VOLUMETRIC BUDGET FOR ENTIRE MODEL AT END OF TIME STEP   30, STRESS PERIOD   2
  ------------------------------------------------------------------------------

     CUMULATIVE VOLUMES      L**3       RATES FOR THIS TIME STEP      L**3/T
     ------------------                 ------------------------

           IN:                                      IN:
           ---                                      ---
             STORAGE     =     1687680.6250               STORAGE     =           0.5792
       CONSTANT HEAD     =           0.0000         CONSTANT HEAD     =           0.0000
     HEAD DEP BOUNDS     =      775205.3125       HEAD DEP BOUNDS     =           0.2854
      STREAM LEAKAGE     =    31116962.0000        STREAM LEAKAGE     =          11.4714
        UZF RECHARGE     =       73223.9531          UZF RECHARGE     =           0.0000
               GW ET     =           0.0000                 GW ET     =           0.0000
     SURFACE LEAKAGE     =           0.0000       SURFACE LEAKAGE     =           0.0000
           AG WELLS      =           0.0000             AG WELLS      =           0.0000

                TOTAL IN =    33653072.0000                  TOTAL IN =          12.3360

          OUT:                                     OUT:
          ----                                     ----
             STORAGE     =     4220740.5000               STORAGE     =           1.2356
       CONSTANT HEAD     =           0.0000         CONSTANT HEAD     =           0.0000
     HEAD DEP BOUNDS     =      783850.8125       HEAD DEP BOUNDS     =           0.2894
      STREAM LEAKAGE     =    28649202.0000        STREAM LEAKAGE     =          10.8112
        UZF RECHARGE     =           0.0000          UZF RECHARGE     =           0.0000
               GW ET     =           0.0000                 GW ET     =           0.0000
     SURFACE LEAKAGE     =           0.0000       SURFACE LEAKAGE     =           0.0000
           AG WELLS      =           0.0000             AG WELLS      =           0.0000

               TOTAL OUT =    33653792.0000                 TOTAL OUT =          12.3362

                IN - OUT =        -720.0000                  IN - OUT =      -1.8311E-04

     PERCENT DISCREPANCY =          -0.00         PERCENT DISCREPANCY =          -0.00






         TIME SUMMARY AT END OF TIME STEP   30 IN STRESS PERIOD    2
                    SECONDS     MINUTES      HOURS       DAYS        YEARS
                    -----------------------------------------------------------
   TIME STEP LENGTH  87667.      1461.1      24.352      1.0147     2.77799E-03
 STRESS PERIOD TIME 2.63000E+06  43833.      730.56      30.440     8.33397E-02
         TOTAL TIME 2.71640E+06  45273.      754.56      31.440     8.60775E-02
1
1
                            STRESS PERIOD NO.    3, LENGTH =   2630000.    
                            -----------------------------------------------

                              NUMBER OF TIME STEPS =    30

                               MULTIPLIER FOR DELT =     1.000

                            INITIAL TIME STEP SIZE =   87666.66    

 REUSING NON-PARAMETER GHB CELLS FROM LAST STRESS PERIOD

      2 GHB CELLS

 REUSING STREAM SEGMENT DATA FROM LAST STRESS PERIOD



            AREAL INFILTRATION RATE
 READING ON UNIT   19 WITH FORMAT: (10F4.0)            

            1           2           3           4           5           6           7           8           9          10
 ........................................................................................................................
   1   1.2000E-09   0.000       0.000       0.000       0.000       0.000       0.000       0.000       0.000       0.000    
   2   2.1000E-09  2.0000E-09  8.0000E-10  8.5000E-09   0.000       0.000       0.000       0.000       0.000       0.000    
   3   5.0000E-10  1.1000E-09  8.8000E-09  5.5000E-09   0.000       0.000       0.000       0.000       0.000       0.000    
   4   8.5000E-09  1.1000E-09  1.1000E-09  1.1000E-09  2.0000E-09   0.000       0.000       0.000       0.000       0.000    
   5   8.5000E-09  1.1000E-09  1.1000E-09  1.1000E-09  1.1000E-09   0.000       0.000       0.000       0.000       0.000    
   6   8.5000E-09  5.2000E-09  2.1000E-09  1.1000E-09  1.5000E-09   0.000       0.000       0.000       0.000       0.000    
   7   8.5000E-09  5.2000E-09  2.1000E-09  1.2000E-09  2.0000E-09   0.000       0.000       0.000       0.000       0.000    
   8   5.0000E-10  5.2000E-09  2.1000E-09  1.2000E-09  5.0000E-09   0.000       0.000       0.000       0.000       0.000    
   9   5.0000E-10  5.2000E-09  2.1000E-09  1.2000E-09  5.0000E-09   0.000       0.000       0.000       0.000       0.000    
  10   5.0000E-10  5.2000E-09  2.1000E-09  1.2000E-09  5.8000E-09   0.000       0.000       0.000       0.000       0.000    
  11   1.0000E-10  1.1000E-09  1.1000E-09  1.2000E-09  5.0000E-09   0.000       0.000       0.000       0.000       0.000    
  12   1.1000E-09  1.1000E-09  1.1000E-09  1.1000E-09  2.0000E-09   0.000       0.000       0.000       0.000       0.000    
  13   1.1000E-09  2.2000E-09  2.2000E-09  2.1000E-09  1.0000E-09   0.000       0.000       0.000       0.000       0.000    
  14   2.0000E-10  5.5000E-09  5.5000E-09  5.2000E-09  1.0000E-09   0.000       0.000       0.000       0.000       0.000    
  15    0.000      8.8000E-09  8.8000E-09   0.000       0.000       0.000       0.000       0.000       0.000       0.000    

                  ET RATE =  5.000000E-10

 USING ET EXTINCTION DEPTH FROM PREVIOUS STRESS PERIOD. CURRENT PERIOD IS:       3

 USING EXTINCTION WATER CONTENT FROM PREVIOUS STRESS PERIOD. CURRENT PERIOD IS:       3

 USING AIR ENTRY PRESSURE FROM PREVIOUS STRESS PERIOD. CURRENT PERIOD IS:       3

 USING ROOT PRESSURE HEAD FROM PREVIOUS STRESS PERIOD. CURRENT PERIOD IS:       3

 USING ROOT ACTIVITY FROM PREVIOUS STRESS PERIOD. CURRENT PERIOD IS:       3

 PROCESSING AG STRESS PERIOD DATA

 READING AG STRESS PERIOD DATA

 READING IRRIGATION WELL

 END PROCESSING AG STRESS PERIOD DATA OPTIONS
 
 SOLVING FOR HEAD 
                                                   Max.-Head-Change                         Max.-Flux-Residual
  Residual-Control   Outer-Iter.   Inner-Iter.     Column Row Layer    Maximum-Head-Change  Column Row Layer    Maximum-Flux-Residual          L2-NORM 
          0                 1           2             2    2     1       0.4445665168E-02       2   13    1         0.2434077885E+00      0.6122456567E+00
          0                 2           2             2    2     1      -0.4324427866E-03       4   13    1        -0.2398219309E-01      0.6028203064E-01
          0                 3           1             2    2     1       0.2944774286E-04       4   13    1         0.1653808416E-02      0.4133544402E-02

    ------------------------------------------------
       NWT REQUIRED            3 OUTER ITERATIONS 
       AND A TOTAL OF          5 INNER ITERATIONS.
    ------------------------------------------------

 NO OUTPUT CONTROL FOR STRESS PERIOD    3   TIME STEP    1
 
 SOLVING FOR HEAD 
                                                   Max.-Head-Change                         Max.-Flux-Residual
  Residual-Control   Outer-Iter.   Inner-Iter.     Column Row Layer    Maximum-Head-Change  Column Row Layer    Maximum-Flux-Residual          L2-NORM 
          0                 1           2             2   13     1       0.7704228482E-02       4   13    1         0.4384289893E+00      0.9459694615E+00
          0                 2           2             4   13     1      -0.7354772568E-03       4   13    1        -0.4338087861E-01      0.9263039001E-01
          0                 3           1             4   13     1       0.4933218303E-04       4   13    1         0.2991614172E-02      0.6300865252E-02

    ------------------------------------------------
       NWT REQUIRED            3 OUTER ITERATIONS 
       AND A TOTAL OF          5 INNER ITERATIONS.
    ------------------------------------------------

 NO OUTPUT CONTROL FOR STRESS PERIOD    3   TIME STEP    2
 
 SOLVING FOR HEAD 
                                                   Max.-Head-Change                         Max.-Flux-Residual
  Residual-Control   Outer-Iter.   Inner-Iter.     Column Row Layer    Maximum-Head-Change  Column Row Layer    Maximum-Flux-Residual          L2-NORM 
          0                 1           2             2   13     1       0.7121127234E-02       2   13    1         0.4014741535E+00      0.8938692328E+00
          0                 2           2             4   13     1      -0.6668062820E-03       4   13    1        -0.3930286909E-01      0.8761599149E-01
          0                 3           1             4   13     1       0.4473894970E-04       4   13    1         0.2711165901E-02      0.5968549507E-02

    ------------------------------------------------
       NWT REQUIRED            3 OUTER ITERATIONS 
       AND A TOTAL OF          5 INNER ITERATIONS.
    ------------------------------------------------

 NO OUTPUT CONTROL FOR STRESS PERIOD    3   TIME STEP    3
 
 SOLVING FOR HEAD 
                                                   Max.-Head-Change                         Max.-Flux-Residual
  Residual-Control   Outer-Iter.   Inner-Iter.     Column Row Layer    Maximum-Head-Change  Column Row Layer    Maximum-Flux-Residual          L2-NORM 
          0                 1           2             2   13     1       0.6582769729E-02       2   13    1         0.3710761315E+00      0.8472028472E+00
          0                 2           2             2   13     1      -0.6119549928E-03       4   13    1        -0.3563299834E-01      0.8313001593E-01
          0                 3           1             4   13     1       0.4058759603E-04       4   13    1         0.2457765077E-02      0.5671479927E-02

    ------------------------------------------------
       NWT REQUIRED            3 OUTER ITERATIONS 
       AND A TOTAL OF          5 INNER ITERATIONS.
    ------------------------------------------------

 NO OUTPUT CONTROL FOR STRESS PERIOD    3   TIME STEP    4
 
 SOLVING FOR HEAD 
                                                   Max.-Head-Change                         Max.-Flux-Residual
  Residual-Control   Outer-Iter.   Inner-Iter.     Column Row Layer    Maximum-Head-Change  Column Row Layer    Maximum-Flux-Residual          L2-NORM 
          0                 1           2             2   13     1       0.6085651864E-02       2   13    1         0.3430083489E+00      0.8054120520E+00
          0                 2           2             2   13     1      -0.5659524633E-03       2   13    1        -0.3278948288E-01      0.7911499148E-01
          0                 3           1             4   13     1       0.3682391790E-04       4   13    1         0.2228115018E-02      0.5405163780E-02

    ------------------------------------------------
       NWT REQUIRED            3 OUTER ITERATIONS 
       AND A TOTAL OF          5 INNER ITERATIONS.
    ------------------------------------------------

 NO OUTPUT CONTROL FOR STRESS PERIOD    3   TIME STEP    5
 
 SOLVING FOR HEAD 
                                                   Max.-Head-Change                         Max.-Flux-Residual
  Residual-Control   Outer-Iter.   Inner-Iter.     Column Row Layer    Maximum-Head-Change  Column Row Layer    Maximum-Flux-Residual          L2-NORM 
          0                 1           2             2   13     1       0.5626677921E-02       2   13    1         0.3170959907E+00      0.7680204251E+00
          0                 2           2             2   13     1      -0.5234555535E-03       2   13    1        -0.3032316165E-01      0.7552067469E-01
          0                 3           1             2    2     1       0.3527219965E-04       4   13    1         0.2025021868E-02      0.5168676099E-02

    ------------------------------------------------
       NWT REQUIRED            3 OUTER ITERATIONS 
       AND A TOTAL OF          5 INNER ITERATIONS.
    ------------------------------------------------

 NO OUTPUT CONTROL FOR STRESS PERIOD    3   TIME STEP    6
 
 SOLVING FOR HEAD 
                                                   Max.-Head-Change                         Max.-Flux-Residual
  Residual-Control   Outer-Iter.   Inner-Iter.     Column Row Layer    Maximum-Head-Change  Column Row Layer    Maximum-Flux-Residual          L2-NORM 
          0                 1           2             2    2     1       0.5289563717E-02       2   13    1         0.2931748824E+00      0.7345793756E+00
          0                 2           2             2    2     1      -0.5145314201E-03       2   13    1        -0.2804363929E-01      0.7231634392E-01
          0                 3           1             2    2     1       0.3503767112E-04       2    2    1         0.1933947680E-02      0.4957786103E-02

    ------------------------------------------------
       NWT REQUIRED            3 OUTER ITERATIONS 
       AND A TOTAL OF          5 INNER ITERATIONS.
    ------------------------------------------------

 NO OUTPUT CONTROL FOR STRESS PERIOD    3   TIME STEP    7
 
 SOLVING FOR HEAD 
                                                   Max.-Head-Change                         Max.-Flux-Residual
  Residual-Control   Outer-Iter.   Inner-Iter.     Column Row Layer    Maximum-Head-Change  Column Row Layer    Maximum-Flux-Residual          L2-NORM 
          0                 1           2             2    2     1       0.5254572817E-02       2    2    1         0.2744371631E+00      0.7046590867E+00
          0                 2           2             2    2     1      -0.5111277395E-03       2    2    1        -0.2744378862E-01      0.6944667644E-01
          0                 3           1             2    2     1       0.3480589343E-04       2    2    1         0.1921065339E-02      0.4767238732E-02

    ------------------------------------------------
       NWT REQUIRED            3 OUTER ITERATIONS 
       AND A TOTAL OF          5 INNER ITERATIONS.
    ------------------------------------------------

 NO OUTPUT CONTROL FOR STRESS PERIOD    3   TIME STEP    8
 
 SOLVING FOR HEAD 
                                                   Max.-Head-Change                         Max.-Flux-Residual
  Residual-Control   Outer-Iter.   Inner-Iter.     Column Row Layer    Maximum-Head-Change  Column Row Layer    Maximum-Flux-Residual          L2-NORM 
          0                 1           2             2    2     1       0.5220076866E-02       2    2    1         0.2726229246E+00      0.6779020571E+00
          0                 2           2             2    2     1      -0.5077722038E-03       2    2    1        -0.2726236342E-01      0.6688010131E-01
          0                 3           1             2    2     1       0.3457739438E-04       2    2    1         0.1908365592E-02      0.4597003011E-02

    ------------------------------------------------
       NWT REQUIRED            3 OUTER ITERATIONS 
       AND A TOTAL OF          5 INNER ITERATIONS.
    ------------------------------------------------

 NO OUTPUT CONTROL FOR STRESS PERIOD    3   TIME STEP    9
 
 SOLVING FOR HEAD 
                                                   Max.-Head-Change                         Max.-Flux-Residual
  Residual-Control   Outer-Iter.   Inner-Iter.     Column Row Layer    Maximum-Head-Change  Column Row Layer    Maximum-Flux-Residual          L2-NORM 
          0                 1           2             2    2     1       0.5186067833E-02       2    2    1         0.2708343486E+00      0.6539758233E+00
          0                 2           2             2    2     1      -0.5044640328E-03       2    2    1        -0.2708350454E-01      0.6459025465E-01
          0                 3           1             2    2     1       0.3435212000E-04       2    2    1         0.1895845473E-02      0.4446636434E-02

    ------------------------------------------------
       NWT REQUIRED            3 OUTER ITERATIONS 
       AND A TOTAL OF          5 INNER ITERATIONS.
    ------------------------------------------------

 NO OUTPUT CONTROL FOR STRESS PERIOD    3   TIME STEP   10
 
 SOLVING FOR HEAD 
                                                   Max.-Head-Change                         Max.-Flux-Residual
  Residual-Control   Outer-Iter.   Inner-Iter.     Column Row Layer    Maximum-Head-Change  Column Row Layer    Maximum-Flux-Residual          L2-NORM 
          0                 1           2             2    2     1       0.5152538631E-02       2    2    1         0.2690710188E+00      0.6325565660E+00
          0                 2           2             2    2     1      -0.5012025364E-03       2    2    1        -0.2690717027E-01      0.6253819138E-01
          0                 3           1             2    2     1       0.3413002462E-04       2    2    1         0.1883502089E-02      0.4311334424E-02

    ------------------------------------------------
       NWT REQUIRED            3 OUTER ITERATIONS 
       AND A TOTAL OF          5 INNER ITERATIONS.
    ------------------------------------------------

 NO OUTPUT CONTROL FOR STRESS PERIOD    3   TIME STEP   11
 
 SOLVING FOR HEAD 
                                                   Max.-Head-Change                         Max.-Flux-Residual
  Residual-Control   Outer-Iter.   Inner-Iter.     Column Row Layer    Maximum-Head-Change  Column Row Layer    Maximum-Flux-Residual          L2-NORM 
          0                 1           2             2    2     1       0.5119394344E-02       2    2    1         0.2673280123E+00      0.6133688537E+00
          0                 2           2             2    2     1      -0.4979784828E-03       2    2    1        -0.2673286842E-01      0.6069910281E-01
          0                 3           1             2    2     1       0.3391047868E-04       2    2    1         0.1871300965E-02      0.4190465028E-02

    ------------------------------------------------
       NWT REQUIRED            3 OUTER ITERATIONS 
       AND A TOTAL OF          5 INNER ITERATIONS.
    ------------------------------------------------

 NO OUTPUT CONTROL FOR STRESS PERIOD    3   TIME STEP   12
 
 SOLVING FOR HEAD 
                                                   Max.-Head-Change                         Max.-Flux-Residual
  Residual-Control   Outer-Iter.   Inner-Iter.     Column Row Layer    Maximum-Head-Change  Column Row Layer    Maximum-Flux-Residual          L2-NORM 
          0                 1           2             2    2     1       0.5086715246E-02       2    2    1         0.2656095184E+00      0.5961666667E+00
          0                 2           2             2    2     1      -0.4947996786E-03       2    2    1        -0.2656101780E-01      0.5905088689E-01
          0                 3           1             2    2     1       0.3369401400E-04       2    2    1         0.1859271408E-02      0.4081827860E-02

    ------------------------------------------------
       NWT REQUIRED            3 OUTER ITERATIONS 
       AND A TOTAL OF          5 INNER ITERATIONS.
    ------------------------------------------------

 NO OUTPUT CONTROL FOR STRESS PERIOD    3   TIME STEP   13
 
 SOLVING FOR HEAD 
                                                   Max.-Head-Change                         Max.-Flux-Residual
  Residual-Control   Outer-Iter.   Inner-Iter.     Column Row Layer    Maximum-Head-Change  Column Row Layer    Maximum-Flux-Residual          L2-NORM 
          0                 1           2             2    2     1       0.5054493826E-02       2    2    1         0.2639151442E+00      0.5807196518E+00
          0                 2           2             2    2     1      -0.4916653956E-03       2    2    1        -0.2639157920E-01      0.5757064749E-01
          0                 3           1             2    2     1       0.3348058109E-04       2    2    1         0.1847410733E-02      0.3983888853E-02

    ------------------------------------------------
       NWT REQUIRED            3 OUTER ITERATIONS 
       AND A TOTAL OF          5 INNER ITERATIONS.
    ------------------------------------------------

 NO OUTPUT CONTROL FOR STRESS PERIOD    3   TIME STEP   14
 
 SOLVING FOR HEAD 
                                                   Max.-Head-Change                         Max.-Flux-Residual
  Residual-Control   Outer-Iter.   Inner-Iter.     Column Row Layer    Maximum-Head-Change  Column Row Layer    Maximum-Flux-Residual          L2-NORM 
          0                 1           2             2    2     1       0.5022723105E-02       2    2    1         0.2622445000E+00      0.5668305111E+00
          0                 2           2             2    2     1      -0.4885749531E-03       2    2    1        -0.2622451362E-01      0.5627994178E-01
          0                 3           1             2    2     1       0.3327013382E-04       2    2    1         0.1835716143E-02      0.3898509223E-02

    ------------------------------------------------
       NWT REQUIRED            3 OUTER ITERATIONS 
       AND A TOTAL OF          5 INNER ITERATIONS.
    ------------------------------------------------

 NO OUTPUT CONTROL FOR STRESS PERIOD    3   TIME STEP   15
 
 SOLVING FOR HEAD 
                                                   Max.-Head-Change                         Max.-Flux-Residual
  Residual-Control   Outer-Iter.   Inner-Iter.     Column Row Layer    Maximum-Head-Change  Column Row Layer    Maximum-Flux-Residual          L2-NORM 
          0                 1           2             2    2     1       0.4991308671E-02       2    2    1         0.2605926681E+00      0.5542877731E+00
          0                 2           2             2    2     1      -0.4855191685E-03       2    2    1        -0.2605932931E-01      0.5503640984E-01
          0                 3           1             2    2     1       0.3306204595E-04       2    2    1         0.1824153239E-02      0.3816448763E-02

    ------------------------------------------------
       NWT REQUIRED            3 OUTER ITERATIONS 
       AND A TOTAL OF          5 INNER ITERATIONS.
    ------------------------------------------------

 NO OUTPUT CONTROL FOR STRESS PERIOD    3   TIME STEP   16
 
 SOLVING FOR HEAD 
                                                   Max.-Head-Change                         Max.-Flux-Residual
  Residual-Control   Outer-Iter.   Inner-Iter.     Column Row Layer    Maximum-Head-Change  Column Row Layer    Maximum-Flux-Residual          L2-NORM 
          0                 1           2             2    2     1       0.4960331271E-02       2    2    1         0.2589638650E+00      0.5429519778E+00
          0                 2           2             2    2     1      -0.4825058959E-03       2    2    1        -0.2589644792E-01      0.5394767103E-01
          0                 3           1             2    2     1       0.3285685377E-04       2    2    1         0.1812751558E-02      0.3744609027E-02

    ------------------------------------------------
       NWT REQUIRED            3 OUTER ITERATIONS 
       AND A TOTAL OF          5 INNER ITERATIONS.
    ------------------------------------------------

 NO OUTPUT CONTROL FOR STRESS PERIOD    3   TIME STEP   17
 
 SOLVING FOR HEAD 
                                                   Max.-Head-Change                         Max.-Flux-Residual
  Residual-Control   Outer-Iter.   Inner-Iter.     Column Row Layer    Maximum-Head-Change  Column Row Layer    Maximum-Flux-Residual          L2-NORM 
          0                 1           2             2    2     1       0.4929772141E-02       2    2    1         0.2573570875E+00      0.5326909075E+00
          0                 2           2             2    2     1      -0.4795333093E-03       2    2    1        -0.2573576909E-01      0.5296155220E-01
          0                 3           1             2    2     1       0.3265443162E-04       2    2    1         0.1801504035E-02      0.3678627855E-02

    ------------------------------------------------
       NWT REQUIRED            3 OUTER ITERATIONS 
       AND A TOTAL OF          5 INNER ITERATIONS.
    ------------------------------------------------

 NO OUTPUT CONTROL FOR STRESS PERIOD    3   TIME STEP   18
 
 SOLVING FOR HEAD 
                                                   Max.-Head-Change                         Max.-Flux-Residual
  Residual-Control   Outer-Iter.   Inner-Iter.     Column Row Layer    Maximum-Head-Change  Column Row Layer    Maximum-Flux-Residual          L2-NORM 
          0                 1           2             2    2     1       0.4899649117E-02       2    2    1         0.2557732654E+00      0.5233847506E+00
          0                 2           2             2    2     1      -0.4766031447E-03       2    2    1        -0.2557738583E-01      0.5206583518E-01
          0                 3           1             2    2     1       0.3245489854E-04       2    2    1         0.1790417213E-02      0.3619436484E-02

    ------------------------------------------------
       NWT REQUIRED            3 OUTER ITERATIONS 
       AND A TOTAL OF          5 INNER ITERATIONS.
    ------------------------------------------------

 NO OUTPUT CONTROL FOR STRESS PERIOD    3   TIME STEP   19
 
 SOLVING FOR HEAD 
                                                   Max.-Head-Change                         Max.-Flux-Residual
  Residual-Control   Outer-Iter.   Inner-Iter.     Column Row Layer    Maximum-Head-Change  Column Row Layer    Maximum-Flux-Residual          L2-NORM 
          0                 1           2             2    2     1       0.4869943561E-02       2    2    1         0.2542114206E+00      0.5149242560E+00
          0                 2           2             2    2     1      -0.4737135889E-03       2    2    1        -0.2542120034E-01      0.5125127960E-01
          0                 3           1             2    2     1       0.3225813098E-04       2    2    1         0.1779484243E-02      0.3565021476E-02

    ------------------------------------------------
       NWT REQUIRED            3 OUTER ITERATIONS 
       AND A TOTAL OF          5 INNER ITERATIONS.
    ------------------------------------------------

 NO OUTPUT CONTROL FOR STRESS PERIOD    3   TIME STEP   20
 
 SOLVING FOR HEAD 
                                                   Max.-Head-Change                         Max.-Flux-Residual
  Residual-Control   Outer-Iter.   Inner-Iter.     Column Row Layer    Maximum-Head-Change  Column Row Layer    Maximum-Flux-Residual          L2-NORM 
          0                 1           2             2    2     1       0.4840560851E-02       2    2    1         0.2526666643E+00      0.5072012422E+00
          0                 2           2             2    2     1      -0.4708554374E-03       2    2    1        -0.2526672370E-01      0.5050684386E-01
          0                 3           1             2    2     1       0.3206350177E-04       2    2    1         0.1768670896E-02      0.3516384638E-02

    ------------------------------------------------
       NWT REQUIRED            3 OUTER ITERATIONS 
       AND A TOTAL OF          5 INNER ITERATIONS.
    ------------------------------------------------

 NO OUTPUT CONTROL FOR STRESS PERIOD    3   TIME STEP   21
 
 SOLVING FOR HEAD 
                                                   Max.-Head-Change                         Max.-Flux-Residual
  Residual-Control   Outer-Iter.   Inner-Iter.     Column Row Layer    Maximum-Head-Change  Column Row Layer    Maximum-Flux-Residual          L2-NORM 
          0                 1           2             2    2     1       0.4811582746E-02       2    2    1         0.2511432039E+00      0.5001329899E+00
          0                 2           2             2    2     1      -0.4680366431E-03       2    2    1        -0.2511437668E-01      0.4982400655E-01
          0                 3           1             2    2     1       0.3187155194E-04       2    2    1         0.1758006591E-02      0.3470460459E-02

    ------------------------------------------------
       NWT REQUIRED            3 OUTER ITERATIONS 
       AND A TOTAL OF          5 INNER ITERATIONS.
    ------------------------------------------------

 NO OUTPUT CONTROL FOR STRESS PERIOD    3   TIME STEP   22
 
 SOLVING FOR HEAD 
                                                   Max.-Head-Change                         Max.-Flux-Residual
  Residual-Control   Outer-Iter.   Inner-Iter.     Column Row Layer    Maximum-Head-Change  Column Row Layer    Maximum-Flux-Residual          L2-NORM 
          0                 1           2             2    2     1       0.4783003515E-02       2    2    1         0.2496407217E+00      0.4936554858E+00
          0                 2           2             2    2     1      -0.4652566484E-03       2    2    1        -0.2496412750E-01      0.4919774399E-01
          0                 3           1             2    2     1       0.3168224456E-04       2    2    1         0.1747489150E-02      0.3428556380E-02

    ------------------------------------------------
       NWT REQUIRED            3 OUTER ITERATIONS 
       AND A TOTAL OF          5 INNER ITERATIONS.
    ------------------------------------------------

 NO OUTPUT CONTROL FOR STRESS PERIOD    3   TIME STEP   23
 
 SOLVING FOR HEAD 
                                                   Max.-Head-Change                         Max.-Flux-Residual
  Residual-Control   Outer-Iter.   Inner-Iter.     Column Row Layer    Maximum-Head-Change  Column Row Layer    Maximum-Flux-Residual          L2-NORM 
          0                 1           2             2    2     1       0.4754729257E-02       2    2    1         0.2481543635E+00      0.4876885073E+00
          0                 2           2             2    2     1      -0.4625063205E-03       2    2    1        -0.2481549076E-01      0.4861940634E-01
          0                 3           1             2    2     1       0.3149495767E-04       2    2    1         0.1737084590E-02      0.3389334073E-02

    ------------------------------------------------
       NWT REQUIRED            3 OUTER ITERATIONS 
       AND A TOTAL OF          5 INNER ITERATIONS.
    ------------------------------------------------

 NO OUTPUT CONTROL FOR STRESS PERIOD    3   TIME STEP   24
 
 SOLVING FOR HEAD 
                                                   Max.-Head-Change                         Max.-Flux-Residual
  Residual-Control   Outer-Iter.   Inner-Iter.     Column Row Layer    Maximum-Head-Change  Column Row Layer    Maximum-Flux-Residual          L2-NORM 
          0                 1           2             2    2     1       0.4726929154E-02       2    2    1         0.2466929324E+00      0.4821859280E+00
          0                 2           2             2    2     1      -0.4598021146E-03       2    2    1        -0.2466934672E-01      0.4808601959E-01
          0                 3           1             2    2     1       0.3131081142E-04       2    2    1         0.1726854515E-02      0.3353589829E-02

    ------------------------------------------------
       NWT REQUIRED            3 OUTER ITERATIONS 
       AND A TOTAL OF          5 INNER ITERATIONS.
    ------------------------------------------------

 NO OUTPUT CONTROL FOR STRESS PERIOD    3   TIME STEP   25
 
 SOLVING FOR HEAD 
                                                   Max.-Head-Change                         Max.-Flux-Residual
  Residual-Control   Outer-Iter.   Inner-Iter.     Column Row Layer    Maximum-Head-Change  Column Row Layer    Maximum-Flux-Residual          L2-NORM 
          0                 1           2             2    2     1       0.4699421599E-02       2    2    1         0.2452469708E+00      0.4770811713E+00
          0                 2           2             2    2     1      -0.4571263660E-03       2    2    1        -0.2452474967E-01      0.4758988174E-01
          0                 3           1             2    2     1       0.3112860330E-04       2    2    1         0.1716732723E-02      0.3320147710E-02

    ------------------------------------------------
       NWT REQUIRED            3 OUTER ITERATIONS 
       AND A TOTAL OF          5 INNER ITERATIONS.
    ------------------------------------------------

 NO OUTPUT CONTROL FOR STRESS PERIOD    3   TIME STEP   26
 
 SOLVING FOR HEAD 
                                                   Max.-Head-Change                         Max.-Flux-Residual
  Residual-Control   Outer-Iter.   Inner-Iter.     Column Row Layer    Maximum-Head-Change  Column Row Layer    Maximum-Flux-Residual          L2-NORM 
          0                 1           2             2    2     1       0.4672289189E-02       2    2    1         0.2438207350E+00      0.4723451967E+00
          0                 2           2             2    2     1      -0.4544871096E-03       2    2    1        -0.2438212524E-01      0.4712938262E-01
          0                 3           1             2    2     1       0.3094887977E-04       2    2    1         0.1706749022E-02      0.3289504742E-02

    ------------------------------------------------
       NWT REQUIRED            3 OUTER ITERATIONS 
       AND A TOTAL OF          5 INNER ITERATIONS.
    ------------------------------------------------

 NO OUTPUT CONTROL FOR STRESS PERIOD    3   TIME STEP   27
 
 SOLVING FOR HEAD 
                                                   Max.-Head-Change                         Max.-Flux-Residual
  Residual-Control   Outer-Iter.   Inner-Iter.     Column Row Layer    Maximum-Head-Change  Column Row Layer    Maximum-Flux-Residual          L2-NORM 
          0                 1           2             2    2     1       0.4645525634E-02       2    2    1         0.2424139500E+00      0.4679308609E+00
          0                 2           2             2    2     1      -0.4518837322E-03       2    2    1        -0.2424144588E-01      0.4669930243E-01
          0                 3           1             2    2     1       0.3077159918E-04       2    2    1         0.1696901457E-02      0.3260339489E-02

    ------------------------------------------------
       NWT REQUIRED            3 OUTER ITERATIONS 
       AND A TOTAL OF          5 INNER ITERATIONS.
    ------------------------------------------------

 NO OUTPUT CONTROL FOR STRESS PERIOD    3   TIME STEP   28
 
 SOLVING FOR HEAD 
                                                   Max.-Head-Change                         Max.-Flux-Residual
  Residual-Control   Outer-Iter.   Inner-Iter.     Column Row Layer    Maximum-Head-Change  Column Row Layer    Maximum-Flux-Residual          L2-NORM 
          0                 1           2             2    2     1       0.4619038651E-02       2    2    1         0.2410217318E+00      0.4638035956E+00
          0                 2           2             2    2     1      -0.4493072587E-03       2    2    1        -0.2410222323E-01      0.4629672981E-01
          0                 3           1             2    2     1       0.3059615139E-04       2    2    1         0.1687155890E-02      0.3232963251E-02

    ------------------------------------------------
       NWT REQUIRED            3 OUTER ITERATIONS 
       AND A TOTAL OF          5 INNER ITERATIONS.
    ------------------------------------------------

 NO OUTPUT CONTROL FOR STRESS PERIOD    3   TIME STEP   29
 
 SOLVING FOR HEAD 
                                                   Max.-Head-Change                         Max.-Flux-Residual
  Residual-Control   Outer-Iter.   Inner-Iter.     Column Row Layer    Maximum-Head-Change  Column Row Layer    Maximum-Flux-Residual          L2-NORM 
          0                 1           2             4   13     1       0.1234231624E-01       4   13    1         0.7107714307E+00      0.1464017461E+01
          0                 2           2             4   13     1      -0.1187262610E-02       4   13    1        -0.7029866676E-01      0.1429596152E+00
          0                 3           1             4   13     1       0.7959010134E-04       4   13    1         0.4845200615E-02      0.9686264772E-02

    ------------------------------------------------
       NWT REQUIRED            3 OUTER ITERATIONS 
       AND A TOTAL OF          5 INNER ITERATIONS.
    ------------------------------------------------

 NO OUTPUT CONTROL FOR STRESS PERIOD    3   TIME STEP   30



 STREAM LISTING     PERIOD      3   STEP       30

 LAYER ROW COL. STREAM  RCH.  FLOW INTO     FLOW TO   FLOW OUT OF   OVRLND.     DIRECT     STREAM       STREAM     STREAM     STREAM   STREAMBED  STREAMBED
                SEG.NO.  NO.  STRM. RCH.    AQUIFER    STRM. RCH.    RUNOFF     PRECIP       ET          HEAD       DEPTH      WIDTH   CONDCTNC.   GRADIENT

   1    1    1     1     1    7.2502E+01  4.1419E-01   7.2087E+01  0.000E+00  0.000E+00  0.000E+00  1.09472E+03  1.670E+00  1.971E+01  8.868E-02  1.557E+00
   1    2    2     1     2    7.2087E+01  6.4160E-01   7.1446E+01  0.000E+00  0.000E+00  0.000E+00  1.08972E+03  1.665E+00  1.965E+01  1.375E-01  1.555E+00
   1    3    3     1     3    7.1446E+01  5.4733E-01   7.0899E+01  0.000E+00  0.000E+00  0.000E+00  1.08408E+03  1.658E+00  1.958E+01  1.175E-01  1.553E+00
   1    3    4     1     4    7.0899E+01  5.0414E-01   7.0394E+01  0.000E+00  0.000E+00  0.000E+00  1.07906E+03  1.652E+00  1.953E+01  1.084E-01  1.551E+00
   1    4    5     2     1    6.8394E+01  4.0598E-01   6.7988E+01  0.000E+00  0.000E+00  0.000E+00  1.07414E+03  2.205E+00  1.200E+01  7.800E-02  1.735E+00
   1    5    6     2     2    6.7988E+01  3.1187E-01   6.7677E+01  0.000E+00  0.000E+00  0.000E+00  1.06871E+03  2.198E+00  1.200E+01  6.000E-02  1.733E+00
   1    6    6     2     3    6.7677E+01  3.1151E-01   6.7365E+01  0.000E+00  0.000E+00  0.000E+00  1.06398E+03  2.192E+00  1.200E+01  6.000E-02  1.731E+00
   1    7    6     2     4    6.7365E+01  3.1115E-01   6.7054E+01  0.000E+00  0.000E+00  0.000E+00  1.05926E+03  2.186E+00  1.200E+01  6.000E-02  1.729E+00
   1    8    6     2     5    6.7054E+01  3.1078E-01   6.6743E+01  0.000E+00  0.000E+00  0.000E+00  1.05454E+03  2.180E+00  1.200E+01  6.000E-02  1.727E+00
   1    3    5     3     1    2.0000E+00  2.8252E-01   1.7175E+00  0.000E+00  0.000E+00  0.000E+00  1.07555E+03  1.909E+00  9.636E+00  7.227E-02  1.955E+00
   1    3    6     3     2    1.7175E+00  2.4905E-01   1.4684E+00  0.000E+00  0.000E+00  0.000E+00  1.07264E+03  1.727E+00  8.909E+00  6.682E-02  1.864E+00
   1    3    7     3     3    1.4684E+00  1.9718E-01   1.2712E+00  0.000E+00  0.000E+00  0.000E+00  1.06987E+03  1.555E+00  8.218E+00  5.547E-02  1.777E+00
   1    4    8     3     4    1.2712E+00  2.2567E-01   1.0456E+00  0.000E+00  0.000E+00  0.000E+00  1.06682E+03  1.364E+00  7.455E+00  6.709E-02  1.682E+00
   1    5    8     3     5    1.0456E+00  1.5790E-01   8.8768E-01  0.000E+00  0.000E+00  0.000E+00  1.06362E+03  1.164E+00  6.655E+00  4.991E-02  1.582E+00
   1    6    8     3     6    8.8768E-01  5.5980E-02   8.3170E-01  0.000E+00  0.000E+00  0.000E+00  1.06158E+03  1.036E+00  6.145E+00  1.844E-02  1.518E+00
   1    5   10     4     1    1.0000E+01  9.0919E-02   9.9091E+00  0.000E+00  0.000E+00  0.000E+00  1.07836E+03  6.368E-01  1.000E+01  2.500E-02  1.212E+00
   1    5    9     4     2    9.9091E+00  1.8158E-01   9.7275E+00  0.000E+00  0.000E+00  0.000E+00  1.07154E+03  6.315E-01  1.000E+01  5.000E-02  1.211E+00
   1    6    8     4     3    9.7275E+00  1.2689E-01   9.6006E+00  0.000E+00  0.000E+00  0.000E+00  1.06381E+03  6.256E-01  1.000E+01  3.500E-02  1.209E+00
   1    6    8     5     1    1.0432E+01  2.2686E-01   1.0205E+01  0.000E+00  0.000E+00  0.000E+00  1.05868E+03  6.790E-01  1.542E+01  6.166E-02  1.226E+00
   1    7    7     5     2    1.0205E+01  2.7894E-01   9.9265E+00  0.000E+00  0.000E+00  0.000E+00  1.05417E+03  6.732E-01  1.519E+01  7.594E-02  1.224E+00
   1    8    7     5     3    9.9265E+00  1.9221E-01   9.7343E+00  0.000E+00  0.000E+00  0.000E+00  1.04992E+03  6.676E-01  1.497E+01  5.241E-02  1.223E+00
   1    8    6     5     4    9.7343E+00  1.3577E-01   9.5985E+00  0.000E+00  0.000E+00  0.000E+00  1.04691E+03  6.637E-01  1.482E+01  3.706E-02  1.221E+00
   1    9    6     6     1    7.6342E+01  3.2296E-01   7.6019E+01  0.000E+00  0.000E+00  0.000E+00  1.04511E+03  2.383E+00  1.200E+01  6.000E-02  1.794E+00
   1   10    7     6     2    7.6019E+01  3.2260E-01   7.5696E+01  0.000E+00  0.000E+00  0.000E+00  1.04056E+03  2.377E+00  1.200E+01  6.000E-02  1.792E+00
   1   11    7     6     3    7.5696E+01  3.2224E-01   7.5374E+01  0.000E+00  0.000E+00  0.000E+00  1.03601E+03  2.371E+00  1.200E+01  6.000E-02  1.790E+00
   1   12    7     6     4    7.5374E+01  3.2187E-01   7.5052E+01  0.000E+00  0.000E+00  0.000E+00  1.03146E+03  2.365E+00  1.200E+01  6.000E-02  1.788E+00
   1   13    7     6     5    7.5052E+01  2.7035E-02   7.5025E+01  0.000E+00  0.000E+00  0.000E+00  1.02827E+03  2.361E+00  1.200E+01  2.400E-02  3.755E-01
   1   14    9     7     1    1.5000E+02  1.3312E+00   1.4867E+02  0.000E+00  0.000E+00  0.000E+00  1.03987E+03  2.288E+00  5.529E+01  5.593E-01  7.933E-01
   1   13    8     7     2    1.4867E+02  1.8193E+00   1.4685E+02  0.000E+00  0.000E+00  0.000E+00  1.03478E+03  2.279E+00  5.526E+01  6.148E-01  9.864E-01
   1   13    7     7     3    1.4685E+02  1.4219E+00   1.4543E+02  0.000E+00  0.000E+00  0.000E+00  1.02969E+03  2.271E+00  5.522E+01  5.585E-01  8.487E-01
   1   13    6     8     1    2.2045E+02  1.0869E+00   2.1937E+02  0.000E+00  0.000E+00  0.000E+00  1.02513E+03  3.251E+00  4.715E+01  4.804E-01  7.541E-01
   1   13    5     8     2    2.1937E+02  2.5867E-01   2.1911E+02  0.000E+00  0.000E+00  0.000E+00  1.01887E+03  3.248E+00  4.709E+01  4.799E-01  1.797E-01
   1   13    4     8     3    2.1911E+02 -1.9099E+00   2.2102E+02  0.000E+00  0.000E+00  0.000E+00  1.01263E+03  3.252E+00  4.716E+01  4.806E+00 -1.325E-01
   1   13    3     8     4    2.2102E+02 -3.1182E+00   2.2413E+02  0.000E+00  0.000E+00  0.000E+00  1.00639E+03  3.266E+00  4.736E+01  4.826E+00 -2.154E-01
   1   13    2     8     5    2.2413E+02 -1.9270E+00   2.2606E+02  0.000E+00  0.000E+00  0.000E+00  1.00015E+03  3.280E+00  4.756E+01  4.846E+00 -1.325E-01
   1   13    1     8     6    2.2606E+02 -1.5653E+00   2.2763E+02  0.000E+00  0.000E+00  0.000E+00  9.95164E+02  3.289E+00  4.770E+01  2.916E+00 -1.789E-01





UNSATURATED ZONE PACKAGE VOLUMETRIC BUDGET FOR  TIME STEP    30 STRESS PERIOD    3
  ------------------------------------------------------------------------------



     CUMULATIVE VOLUMES      L**3       RATES FOR THIS TIME STEP      L**3/T
     ------------------                 ------------------------

           IN:                                      IN:
           ---                                      ---
        INFILTRATION =    23256673.1162          INFILTRATION =           4.4075

          OUT:                                     OUT:
          ----                                     ----
              UZF ET =     3813499.8026                UZF ET =           0.7250
        UZF RECHARGE =       73224.0000          UZF RECHARGE =       0.0000E+00

            IN - OUT =    19369949.3136              IN - OUT =           3.6825

          STORAGE:                                 STORAGE:
          --------                                 --------
      STORAGE CHANGE =    19369949.1812        STORAGE CHANGE =           3.6825

 PERCENT DISCREPANCY IS DIFFERENCE BETWEEN IN-OUT MINUS CHANGE IN STORAGE
 DIVIDED BY THE AVERAGE OF IN AND OUT TIMES 100

 PERCENT DISCREPANCY =           0.00     PERCENT DISCREPANCY =           0.00






1
  VOLUMETRIC BUDGET FOR AGRICULTURAL FIELDS AT TIME STEP   30, STRESS PERIOD   3
  ------------------------------------------------------------------------------

     CUMULATIVE VOLUMES      L**3       RATES FOR THIS TIME STEP      L**3/T
     ------------------                 ------------------------

           IN:                                      IN:
           ---                                      ---
               AG WELLS  =           0.0000                 AG WELLS  =           0.0000
      DIVERSION SEGMENTS =           0.0000        DIVERSION SEGMENTS =           0.0000
           GW IRRIGATION =           0.0000             GW IRRIGATION =           0.0000
           SW IRRIGATION =           0.0000             SW IRRIGATION =           0.0000
        SYSTEM LOSSES GW =           0.0000          SYSTEM LOSSES GW =           0.0000
        SYSTEM LOSSES SW =           0.0000          SYSTEM LOSSES SW =           0.0000

                TOTAL IN =           0.0000                  TOTAL IN =           0.0000

          OUT:                                     OUT:
          ----                                     ----
               AG WELLS  =           0.0000                 AG WELLS  =           0.0000
      DIVERSION SEGMENTS =           0.0000        DIVERSION SEGMENTS =           0.0000
           GW IRRIGATION =           0.0000             GW IRRIGATION =           0.0000
           SW IRRIGATION =           0.0000             SW IRRIGATION =           0.0000
        SYSTEM LOSSES GW =           0.0000          SYSTEM LOSSES GW =           0.0000
        SYSTEM LOSSES SW =           0.0000          SYSTEM LOSSES SW =           0.0000

               TOTAL OUT =           0.0000                 TOTAL OUT =           0.0000

                IN - OUT =           0.0000                  IN - OUT =           0.0000

     PERCENT DISCREPANCY =           0.00         PERCENT DISCREPANCY =           0.00



1
  VOLUMETRIC BUDGET FOR ENTIRE MODEL AT END OF TIME STEP   30, STRESS PERIOD   3
  ------------------------------------------------------------------------------

     CUMULATIVE VOLUMES      L**3       RATES FOR THIS TIME STEP      L**3/T
     ------------------                 ------------------------

           IN:                                      IN:
           ---                                      ---
             STORAGE     =     3047021.5000               STORAGE     =           0.4724
       CONSTANT HEAD     =           0.0000         CONSTANT HEAD     =           0.0000
     HEAD DEP BOUNDS     =     1525869.2500       HEAD DEP BOUNDS     =           0.2854
      STREAM LEAKAGE     =    63536332.0000        STREAM LEAKAGE     =          13.3947
        UZF RECHARGE     =       73223.9531          UZF RECHARGE     =           0.0000
               GW ET     =           0.0000                 GW ET     =           0.0000
     SURFACE LEAKAGE     =           0.0000       SURFACE LEAKAGE     =           0.0000
           AG WELLS      =           0.0000             AG WELLS      =           0.0000

                TOTAL IN =    68182448.0000                  TOTAL IN =          14.1525

          OUT:                                     OUT:
          ----                                     ----
             STORAGE     =    11250797.0000               STORAGE     =           5.3409
       CONSTANT HEAD     =           0.0000         CONSTANT HEAD     =           0.0000
     HEAD DEP BOUNDS     =     1549889.6250       HEAD DEP BOUNDS     =           0.2926
      STREAM LEAKAGE     =    55384088.0000        STREAM LEAKAGE     =           8.5203
        UZF RECHARGE     =           0.0000          UZF RECHARGE     =           0.0000
               GW ET     =       1.0852E-07                 GW ET     =           0.0000
     SURFACE LEAKAGE     =           0.0000       SURFACE LEAKAGE     =           0.0000
           AG WELLS      =           0.0000             AG WELLS      =           0.0000

               TOTAL OUT =    68184776.0000                 TOTAL OUT =          14.1539

                IN - OUT =       -2328.0000                  IN - OUT =      -1.3828E-03

     PERCENT DISCREPANCY =          -0.00         PERCENT DISCREPANCY =          -0.01






         TIME SUMMARY AT END OF TIME STEP   30 IN STRESS PERIOD    3
                    SECONDS     MINUTES      HOURS       DAYS        YEARS
                    -----------------------------------------------------------
   TIME STEP LENGTH  87667.      1461.1      24.352      1.0147     2.77799E-03
 STRESS PERIOD TIME 2.63000E+06  43833.      730.56      30.440     8.33397E-02
         TOTAL TIME 5.34640E+06  89107.      1485.1      61.880     0.16942    
1
1
                            STRESS PERIOD NO.    4, LENGTH =   2630000.    
                            -----------------------------------------------

                              NUMBER OF TIME STEPS =    30

                               MULTIPLIER FOR DELT =     1.000

                            INITIAL TIME STEP SIZE =   87666.66    

 REUSING NON-PARAMETER GHB CELLS FROM LAST STRESS PERIOD

      2 GHB CELLS

 REUSING STREAM SEGMENT DATA FROM LAST STRESS PERIOD



            AREAL INFILTRATION RATE
 READING ON UNIT   19 WITH FORMAT: (10F4.0)            

            1           2           3           4           5           6           7           8           9          10
 ........................................................................................................................
   1   1.2000E-09   0.000       0.000       0.000       0.000       0.000       0.000       0.000       0.000       0.000    
   2   2.1000E-09  2.0000E-09  8.0000E-10  8.5000E-09   0.000       0.000       0.000       0.000       0.000       0.000    
   3   5.0000E-10  1.1000E-09  8.8000E-09  5.5000E-09   0.000       0.000       0.000       0.000       0.000       0.000    
   4   8.5000E-09  1.1000E-09  1.1000E-09  1.1000E-09  2.0000E-09   0.000       0.000       0.000       0.000       0.000    
   5   8.5000E-09  1.1000E-09  1.1000E-09  1.1000E-09  1.1000E-09   0.000       0.000       0.000       0.000       0.000    
   6   8.5000E-09  5.2000E-09  2.1000E-09  1.1000E-09  1.5000E-09   0.000       0.000       0.000       0.000       0.000    
   7   8.5000E-09  5.2000E-09  2.1000E-09  1.2000E-09  2.0000E-09   0.000       0.000       0.000       0.000       0.000    
   8   5.0000E-10  5.2000E-09  2.1000E-09  1.2000E-09  5.0000E-09   0.000       0.000       0.000       0.000       0.000    
   9   5.0000E-10  5.2000E-09  2.1000E-09  1.2000E-09  5.0000E-09   0.000       0.000       0.000       0.000       0.000    
  10   5.0000E-10  5.2000E-09  2.1000E-09  1.2000E-09  5.8000E-09   0.000       0.000       0.000       0.000       0.000    
  11   1.0000E-10  1.1000E-09  1.1000E-09  1.2000E-09  5.0000E-09   0.000       0.000       0.000       0.000       0.000    
  12   1.1000E-09  1.1000E-09  1.1000E-09  1.1000E-09  2.0000E-09   0.000       0.000       0.000       0.000       0.000    
  13   1.1000E-09  2.2000E-09  2.2000E-09  2.1000E-09  1.0000E-09   0.000       0.000       0.000       0.000       0.000    
  14   2.0000E-10  5.5000E-09  5.5000E-09  5.2000E-09  1.0000E-09   0.000       0.000       0.000       0.000       0.000    
  15    0.000      8.8000E-09  8.8000E-09   0.000       0.000       0.000       0.000       0.000       0.000       0.000    

                  ET RATE =  5.000000E-10

 USING ET EXTINCTION DEPTH FROM PREVIOUS STRESS PERIOD. CURRENT PERIOD IS:       4

 USING EXTINCTION WATER CONTENT FROM PREVIOUS STRESS PERIOD. CURRENT PERIOD IS:       4

 USING AIR ENTRY PRESSURE FROM PREVIOUS STRESS PERIOD. CURRENT PERIOD IS:       4

 USING ROOT PRESSURE HEAD FROM PREVIOUS STRESS PERIOD. CURRENT PERIOD IS:       4

 USING ROOT ACTIVITY FROM PREVIOUS STRESS PERIOD. CURRENT PERIOD IS:       4

 PROCESSING AG STRESS PERIOD DATA

 READING AG STRESS PERIOD DATA

 READING IRRIGATION WELL

 END PROCESSING AG STRESS PERIOD DATA OPTIONS
 
 SOLVING FOR HEAD 
                                                   Max.-Head-Change                         Max.-Flux-Residual
  Residual-Control   Outer-Iter.   Inner-Iter.     Column Row Layer    Maximum-Head-Change  Column Row Layer    Maximum-Flux-Residual          L2-NORM 
          0                 1           2             2   13     1       0.1291474750E-01       4   13    1         0.7422250158E+00      0.1546001590E+01
          0                 2           2             4   13     1      -0.1228928709E-02       4   13    1        -0.7340082663E-01      0.1359804119E+00
          0                 3           1             4   13     1       0.8238755266E-04       4   13    1         0.5058703538E-02      0.9306679232E-02

    ------------------------------------------------
       NWT REQUIRED            3 OUTER ITERATIONS 
       AND A TOTAL OF          5 INNER ITERATIONS.
    ------------------------------------------------

 NO OUTPUT CONTROL FOR STRESS PERIOD    4   TIME STEP    1
 
 SOLVING FOR HEAD 
                                                   Max.-Head-Change                         Max.-Flux-Residual
  Residual-Control   Outer-Iter.   Inner-Iter.     Column Row Layer    Maximum-Head-Change  Column Row Layer    Maximum-Flux-Residual          L2-NORM 
          0                 1           2             2   13     1       0.1190542072E-01       2   13    1         0.6737610471E+00      0.1466615921E+01
          0                 2           2             4   13     1      -0.1110530988E-02       4   13    1        -0.6629198284E-01      0.1285832913E+00
          0                 3           1             4   13     1       0.7440926023E-04       4   13    1         0.4568634023E-02      0.8820496578E-02

    ------------------------------------------------
       NWT REQUIRED            3 OUTER ITERATIONS 
       AND A TOTAL OF          5 INNER ITERATIONS.
    ------------------------------------------------

 NO OUTPUT CONTROL FOR STRESS PERIOD    4   TIME STEP    2
 
 SOLVING FOR HEAD 
                                                   Max.-Head-Change                         Max.-Flux-Residual
  Residual-Control   Outer-Iter.   Inner-Iter.     Column Row Layer    Maximum-Head-Change  Column Row Layer    Maximum-Flux-Residual          L2-NORM 
          0                 1           2             2   13     1       0.1097615636E-01       2   13    1         0.6211569221E+00      0.1385127688E+01
          0                 2           2             2   13     1      -0.1008194045E-02       2   13    1        -0.5911372708E-01      0.1064043629E+00
          0                 3           1             2   13     1       0.6738532992E-04       2   13    1         0.4062745879E-02      0.7370114174E-02

    ------------------------------------------------
       NWT REQUIRED            3 OUTER ITERATIONS 
       AND A TOTAL OF          5 INNER ITERATIONS.
    ------------------------------------------------

 NO OUTPUT CONTROL FOR STRESS PERIOD    4   TIME STEP    3
 
 SOLVING FOR HEAD 
                                                   Max.-Head-Change                         Max.-Flux-Residual
  Residual-Control   Outer-Iter.   Inner-Iter.     Column Row Layer    Maximum-Head-Change  Column Row Layer    Maximum-Flux-Residual          L2-NORM 
          0                 1           2             2   13     1       0.1012105140E-01       4   13    1         0.5799712766E+00      0.1314645701E+01
          0                 2           2             2   13     1      -0.9298082472E-03       2   13    1        -0.5450994463E-01      0.1029338817E+00
          0                 3           1             2   13     1       0.6216924697E-04       2   13    1         0.3747542336E-02      0.7136344353E-02

    ------------------------------------------------
       NWT REQUIRED            3 OUTER ITERATIONS 
       AND A TOTAL OF          5 INNER ITERATIONS.
    ------------------------------------------------

 NO OUTPUT CONTROL FOR STRESS PERIOD    4   TIME STEP    4
 
 SOLVING FOR HEAD 
                                                   Max.-Head-Change                         Max.-Flux-Residual
  Residual-Control   Outer-Iter.   Inner-Iter.     Column Row Layer    Maximum-Head-Change  Column Row Layer    Maximum-Flux-Residual          L2-NORM 
          0                 1           2             2   13     1       0.9332987116E-02       2   13    1         0.5281158168E+00      0.1241574491E+01
          0                 2           2             2   13     1      -0.8582288021E-03       2   13    1        -0.5030544876E-01      0.9982366749E-01
          0                 3           1             2   13     1       0.5740118358E-04       2   13    1         0.3459460007E-02      0.6926907135E-02

    ------------------------------------------------
       NWT REQUIRED            3 OUTER ITERATIONS 
       AND A TOTAL OF          5 INNER ITERATIONS.
    ------------------------------------------------

 NO OUTPUT CONTROL FOR STRESS PERIOD    4   TIME STEP    5
 
 SOLVING FOR HEAD 
                                                   Max.-Head-Change                         Max.-Flux-Residual
  Residual-Control   Outer-Iter.   Inner-Iter.     Column Row Layer    Maximum-Head-Change  Column Row Layer    Maximum-Flux-Residual          L2-NORM 
          0                 1           2             2   13     1       0.8606071140E-02       2   13    1         0.4869515768E+00      0.1177077385E+01
          0                 2           2             2   13     1      -0.7920999749E-03       2   13    1        -0.4642050831E-01      0.9699538454E-01
          0                 3           1             2   13     1       0.5294657748E-04       2   13    1         0.3190387129E-02      0.6733989824E-02

    ------------------------------------------------
       NWT REQUIRED            3 OUTER ITERATIONS 
       AND A TOTAL OF          5 INNER ITERATIONS.
    ------------------------------------------------

 NO OUTPUT CONTROL FOR STRESS PERIOD    4   TIME STEP    6
 
 SOLVING FOR HEAD 
                                                   Max.-Head-Change                         Max.-Flux-Residual
  Residual-Control   Outer-Iter.   Inner-Iter.     Column Row Layer    Maximum-Head-Change  Column Row Layer    Maximum-Flux-Residual          L2-NORM 
          0                 1           2             2   13     1       0.7935596999E-02       2   13    1         0.4489813310E+00      0.1120202842E+01
          0                 2           2             2    2     1      -0.7501961948E-03       2   13    1        -0.4283093187E-01      0.9442035417E-01
          0                 3           1             2    2     1       0.5108555791E-04       2   13    1         0.2943606958E-02      0.6560219943E-02

    ------------------------------------------------
       NWT REQUIRED            3 OUTER ITERATIONS 
       AND A TOTAL OF          5 INNER ITERATIONS.
    ------------------------------------------------

 NO OUTPUT CONTROL FOR STRESS PERIOD    4   TIME STEP    7
 
 SOLVING FOR HEAD 
                                                   Max.-Head-Change                         Max.-Flux-Residual
  Residual-Control   Outer-Iter.   Inner-Iter.     Column Row Layer    Maximum-Head-Change  Column Row Layer    Maximum-Flux-Residual          L2-NORM 
          0                 1           2             2    2     1       0.7665179640E-02       2   13    1         0.4139740830E+00      0.1070073018E+01
          0                 2           2             2    2     1      -0.7456151658E-03       2    2    1        -0.4001410346E-01      0.9207248916E-01
          0                 3           1             2    2     1       0.5077360716E-04       2    2    1         0.2800987081E-02      0.6401475452E-02

    ------------------------------------------------
       NWT REQUIRED            3 OUTER ITERATIONS 
       AND A TOTAL OF          5 INNER ITERATIONS.
    ------------------------------------------------

 NO OUTPUT CONTROL FOR STRESS PERIOD    4   TIME STEP    8
 
 SOLVING FOR HEAD 
                                                   Max.-Head-Change                         Max.-Flux-Residual
  Residual-Control   Outer-Iter.   Inner-Iter.     Column Row Layer    Maximum-Head-Change  Column Row Layer    Maximum-Flux-Residual          L2-NORM 
          0                 1           2             2    2     1       0.7618653018E-02       2    2    1         0.3976932327E+00      0.1025864663E+01
          0                 2           2             2    2     1      -0.7410893561E-03       2    2    1        -0.3976946692E-01      0.8993322443E-01
          0                 3           1             2    2     1       0.5046541690E-04       2    2    1         0.2783862536E-02      0.6256752391E-02

    ------------------------------------------------
       NWT REQUIRED            3 OUTER ITERATIONS 
       AND A TOTAL OF          5 INNER ITERATIONS.
    ------------------------------------------------

 NO OUTPUT CONTROL FOR STRESS PERIOD    4   TIME STEP    9
 
 SOLVING FOR HEAD 
                                                   Max.-Head-Change                         Max.-Flux-Residual
  Residual-Control   Outer-Iter.   Inner-Iter.     Column Row Layer    Maximum-Head-Change  Column Row Layer    Maximum-Flux-Residual          L2-NORM 
          0                 1           2             2    2     1       0.7572771882E-02       2    2    1         0.3952808855E+00      0.9868668337E+00
          0                 2           2             2    2     1      -0.7366263344E-03       2    2    1        -0.3952822971E-01      0.8797921819E-01
          0                 3           1             2    2     1       0.5016150120E-04       2    2    1         0.2766975920E-02      0.6124211607E-02

    ------------------------------------------------
       NWT REQUIRED            3 OUTER ITERATIONS 
       AND A TOTAL OF          5 INNER ITERATIONS.
    ------------------------------------------------

 NO OUTPUT CONTROL FOR STRESS PERIOD    4   TIME STEP   10
 
 SOLVING FOR HEAD 
                                                   Max.-Head-Change                         Max.-Flux-Residual
  Residual-Control   Outer-Iter.   Inner-Iter.     Column Row Layer    Maximum-Head-Change  Column Row Layer    Maximum-Flux-Residual          L2-NORM 
          0                 1           2             2    2     1       0.7527438293E-02       2    2    1         0.3928974452E+00      0.9524550315E+00
          0                 2           2             2    2     1      -0.7322165764E-03       2    2    1        -0.3928988328E-01      0.8619534022E-01
          0                 3           1             2    2     1       0.4986121394E-04       2    2    1         0.2750291704E-02      0.6002550654E-02

    ------------------------------------------------
       NWT REQUIRED            3 OUTER ITERATIONS 
       AND A TOTAL OF          5 INNER ITERATIONS.
    ------------------------------------------------

 NO OUTPUT CONTROL FOR STRESS PERIOD    4   TIME STEP   11
 
 SOLVING FOR HEAD 
                                                   Max.-Head-Change                         Max.-Flux-Residual
  Residual-Control   Outer-Iter.   Inner-Iter.     Column Row Layer    Maximum-Head-Change  Column Row Layer    Maximum-Flux-Residual          L2-NORM 
          0                 1           2             2    2     1       0.7482730438E-02       2    2    1         0.3905469552E+00      0.9220577486E+00
          0                 2           2             2    2     1      -0.7278676856E-03       2    2    1        -0.3905483191E-01      0.8455761693E-01
          0                 3           1             2    2     1       0.4956507107E-04       2    2    1         0.2733838132E-02      0.5891704933E-02

    ------------------------------------------------
       NWT REQUIRED            3 OUTER ITERATIONS 
       AND A TOTAL OF          5 INNER ITERATIONS.
    ------------------------------------------------

 NO OUTPUT CONTROL FOR STRESS PERIOD    4   TIME STEP   12
 
 SOLVING FOR HEAD 
                                                   Max.-Head-Change                         Max.-Flux-Residual
  Residual-Control   Outer-Iter.   Inner-Iter.     Column Row Layer    Maximum-Head-Change  Column Row Layer    Maximum-Flux-Residual          L2-NORM 
          0                 1           2             2    2     1       0.7438639106E-02       2    2    1         0.3882289088E+00      0.8951732628E+00
          0                 2           2             2    2     1      -0.7235787660E-03       2    2    1        -0.3882302494E-01      0.8305663715E-01
          0                 3           1             2    2     1       0.4927301175E-04       2    2    1         0.2717611647E-02      0.5789217359E-02

    ------------------------------------------------
       NWT REQUIRED            3 OUTER ITERATIONS 
       AND A TOTAL OF          5 INNER ITERATIONS.
    ------------------------------------------------

 NO OUTPUT CONTROL FOR STRESS PERIOD    4   TIME STEP   13
 
 SOLVING FOR HEAD 
                                                   Max.-Head-Change                         Max.-Flux-Residual
  Residual-Control   Outer-Iter.   Inner-Iter.     Column Row Layer    Maximum-Head-Change  Column Row Layer    Maximum-Flux-Residual          L2-NORM 
          0                 1           2             2    2     1       0.7395066856E-02       2    2    1         0.3859382668E+00      0.8713564172E+00
          0                 2           2             2    2     1      -0.7193403403E-03       2    2    1        -0.3859395850E-01      0.8167878109E-01
          0                 3           1             2    2     1       0.4898439107E-04       2    2    1         0.2701577018E-02      0.5695917461E-02

    ------------------------------------------------
       NWT REQUIRED            3 OUTER ITERATIONS 
       AND A TOTAL OF          5 INNER ITERATIONS.
    ------------------------------------------------

 NO OUTPUT CONTROL FOR STRESS PERIOD    4   TIME STEP   14
 
 SOLVING FOR HEAD 
                                                   Max.-Head-Change                         Max.-Flux-Residual
  Residual-Control   Outer-Iter.   Inner-Iter.     Column Row Layer    Maximum-Head-Change  Column Row Layer    Maximum-Flux-Residual          L2-NORM 
          0                 1           2             2    2     1       0.7352092727E-02       2    2    1         0.3836791000E+00      0.8502132331E+00
          0                 2           2             2    2     1      -0.7151600960E-03       2    2    1        -0.3836803961E-01      0.8041035658E-01
          0                 3           1             2    2     1       0.4869973229E-04       2    2    1         0.2685762705E-02      0.5609333889E-02

    ------------------------------------------------
       NWT REQUIRED            3 OUTER ITERATIONS 
       AND A TOTAL OF          5 INNER ITERATIONS.
    ------------------------------------------------

 NO OUTPUT CONTROL FOR STRESS PERIOD    4   TIME STEP   15
 
 SOLVING FOR HEAD 
                                                   Max.-Head-Change                         Max.-Flux-Residual
  Residual-Control   Outer-Iter.   Inner-Iter.     Column Row Layer    Maximum-Head-Change  Column Row Layer    Maximum-Flux-Residual          L2-NORM 
          0                 1           2             2    2     1       0.7309707230E-02       2    2    1         0.3814509450E+00      0.8314101459E+00
          0                 2           2             2    2     1      -0.7110371103E-03       2    2    1        -0.3814522195E-01      0.7924280652E-01
          0                 3           1             2    2     1       0.4841897247E-04       2    2    1         0.2670165486E-02      0.5529818687E-02

    ------------------------------------------------
       NWT REQUIRED            3 OUTER ITERATIONS 
       AND A TOTAL OF          5 INNER ITERATIONS.
    ------------------------------------------------

 NO OUTPUT CONTROL FOR STRESS PERIOD    4   TIME STEP   16
 
 SOLVING FOR HEAD 
                                                   Max.-Head-Change                         Max.-Flux-Residual
  Residual-Control   Outer-Iter.   Inner-Iter.     Column Row Layer    Maximum-Head-Change  Column Row Layer    Maximum-Flux-Residual          L2-NORM 
          0                 1           2             2    2     1       0.7267901031E-02       2    2    1         0.3792533099E+00      0.8146266947E+00
          0                 2           2             2    2     1      -0.7069704756E-03       2    2    1        -0.3792545637E-01      0.7816367307E-01
          0                 3           1             2    2     1       0.4814204983E-04       2    2    1         0.2654781905E-02      0.5455873807E-02

    ------------------------------------------------
       NWT REQUIRED            3 OUTER ITERATIONS 
       AND A TOTAL OF          5 INNER ITERATIONS.
    ------------------------------------------------

 NO OUTPUT CONTROL FOR STRESS PERIOD    4   TIME STEP   17
 
 SOLVING FOR HEAD 
                                                   Max.-Head-Change                         Max.-Flux-Residual
  Residual-Control   Outer-Iter.   Inner-Iter.     Column Row Layer    Maximum-Head-Change  Column Row Layer    Maximum-Flux-Residual          L2-NORM 
          0                 1           2             2    2     1       0.7226578003E-02       2    2    1         0.3770811483E+00      0.7996054188E+00
          0                 2           2             2    2     1      -0.7029508404E-03       2    2    1        -0.3770823814E-01      0.7716605815E-01
          0                 3           1             2    2     1       0.4786832796E-04       2    2    1         0.2639576632E-02      0.5387754087E-02

    ------------------------------------------------
       NWT REQUIRED            3 OUTER ITERATIONS 
       AND A TOTAL OF          5 INNER ITERATIONS.
    ------------------------------------------------

 NO OUTPUT CONTROL FOR STRESS PERIOD    4   TIME STEP   18
 
 SOLVING FOR HEAD 
                                                   Max.-Head-Change                         Max.-Flux-Residual
  Residual-Control   Outer-Iter.   Inner-Iter.     Column Row Layer    Maximum-Head-Change  Column Row Layer    Maximum-Flux-Residual          L2-NORM 
          0                 1           2             2    2     1       0.7185817090E-02       2    2    1         0.3749386008E+00      0.7861176949E+00
          0                 2           2             2    2     1      -0.6989858846E-03       2    2    1        -0.3749398136E-01      0.7623974337E-01
          0                 3           1             2    2     1       0.4759832967E-04       2    2    1         0.2624578688E-02      0.5324784873E-02

    ------------------------------------------------
       NWT REQUIRED            3 OUTER ITERATIONS 
       AND A TOTAL OF          5 INNER ITERATIONS.
    ------------------------------------------------

 NO OUTPUT CONTROL FOR STRESS PERIOD    4   TIME STEP   19
 
 SOLVING FOR HEAD 
                                                   Max.-Head-Change                         Max.-Flux-Residual
  Residual-Control   Outer-Iter.   Inner-Iter.     Column Row Layer    Maximum-Head-Change  Column Row Layer    Maximum-Flux-Residual          L2-NORM 
          0                 1           2             2    2     1       0.7145522110E-02       2    2    1         0.3728206354E+00      0.7739518367E+00
          0                 2           2             2    2     1      -0.6950662522E-03       2    2    1        -0.3728218286E-01      0.7537999349E-01
          0                 3           1             2    2     1       0.4733141737E-04       2    2    1         0.2609752807E-02      0.5265733080E-02

    ------------------------------------------------
       NWT REQUIRED            3 OUTER ITERATIONS 
       AND A TOTAL OF          5 INNER ITERATIONS.
    ------------------------------------------------

 NO OUTPUT CONTROL FOR STRESS PERIOD    4   TIME STEP   20
 
 SOLVING FOR HEAD 
                                                   Max.-Head-Change                         Max.-Flux-Residual
  Residual-Control   Outer-Iter.   Inner-Iter.     Column Row Layer    Maximum-Head-Change  Column Row Layer    Maximum-Flux-Residual          L2-NORM 
          0                 1           2             2    2     1       0.7105773113E-02       2    2    1         0.3707313907E+00      0.7629492184E+00
          0                 2           2             2    2     1      -0.6911997295E-03       2    2    1        -0.3707325647E-01      0.7457897876E-01
          0                 3           1             2    2     1       0.4706812190E-04       2    2    1         0.2595127967E-02      0.5210584654E-02

    ------------------------------------------------
       NWT REQUIRED            3 OUTER ITERATIONS 
       AND A TOTAL OF          5 INNER ITERATIONS.
    ------------------------------------------------

 NO OUTPUT CONTROL FOR STRESS PERIOD    4   TIME STEP   21
 
 SOLVING FOR HEAD 
                                                   Max.-Head-Change                         Max.-Flux-Residual
  Residual-Control   Outer-Iter.   Inner-Iter.     Column Row Layer    Maximum-Head-Change  Column Row Layer    Maximum-Flux-Residual          L2-NORM 
          0                 1           2             2    2     1       0.7066561038E-02       2    2    1         0.3686704548E+00      0.7529659848E+00
          0                 2           2             2    2     1      -0.6873854355E-03       2    2    1        -0.3686716101E-01      0.7383261285E-01
          0                 3           1             2    2     1       0.4680838293E-04       2    2    1         0.2580701293E-02      0.5159294746E-02

    ------------------------------------------------
       NWT REQUIRED            3 OUTER ITERATIONS 
       AND A TOTAL OF          5 INNER ITERATIONS.
    ------------------------------------------------

 NO OUTPUT CONTROL FOR STRESS PERIOD    4   TIME STEP   22
 
 SOLVING FOR HEAD 
                                                   Max.-Head-Change                         Max.-Flux-Residual
  Residual-Control   Outer-Iter.   Inner-Iter.     Column Row Layer    Maximum-Head-Change  Column Row Layer    Maximum-Flux-Residual          L2-NORM 
          0                 1           2             2    2     1       0.7027878183E-02       2    2    1         0.3666373575E+00      0.7438626748E+00
          0                 2           2             2    2     1      -0.6836226207E-03       2    2    1        -0.3666384945E-01      0.7313457110E-01
          0                 3           1             2    2     1       0.4655214908E-04       2    2    1         0.2566469480E-02      0.5111602877E-02

    ------------------------------------------------
       NWT REQUIRED            3 OUTER ITERATIONS 
       AND A TOTAL OF          5 INNER ITERATIONS.
    ------------------------------------------------

 NO OUTPUT CONTROL FOR STRESS PERIOD    4   TIME STEP   23
 
 SOLVING FOR HEAD 
                                                   Max.-Head-Change                         Max.-Flux-Residual
  Residual-Control   Outer-Iter.   Inner-Iter.     Column Row Layer    Maximum-Head-Change  Column Row Layer    Maximum-Flux-Residual          L2-NORM 
          0                 1           2             2    2     1       0.6989628530E-02       2    2    1         0.3646271360E+00      0.7355249606E+00
          0                 2           2             2    2     1      -0.6799019457E-03       2    2    1        -0.3646282549E-01      0.7247951571E-01
          0                 3           1             2    2     1       0.4629878585E-04       2    2    1         0.2552397840E-02      0.5066607396E-02

    ------------------------------------------------
       NWT REQUIRED            3 OUTER ITERATIONS 
       AND A TOTAL OF          5 INNER ITERATIONS.
    ------------------------------------------------

 NO OUTPUT CONTROL FOR STRESS PERIOD    4   TIME STEP   24
 
 SOLVING FOR HEAD 
                                                   Max.-Head-Change                         Max.-Flux-Residual
  Residual-Control   Outer-Iter.   Inner-Iter.     Column Row Layer    Maximum-Head-Change  Column Row Layer    Maximum-Flux-Residual          L2-NORM 
          0                 1           2             2    2     1       0.6951891894E-02       2    2    1         0.3626439390E+00      0.7278769460E+00
          0                 2           2             2    2     1      -0.6762311730E-03       2    2    1        -0.3626450403E-01      0.7186563441E-01
          0                 3           1             2    2     1       0.4604881958E-04       2    2    1         0.2538515328E-02      0.5024437676E-02

    ------------------------------------------------
       NWT REQUIRED            3 OUTER ITERATIONS 
       AND A TOTAL OF          5 INNER ITERATIONS.
    ------------------------------------------------

 NO OUTPUT CONTROL FOR STRESS PERIOD    4   TIME STEP   25
 
 SOLVING FOR HEAD 
                                                   Max.-Head-Change                         Max.-Flux-Residual
  Residual-Control   Outer-Iter.   Inner-Iter.     Column Row Layer    Maximum-Head-Change  Column Row Layer    Maximum-Flux-Residual          L2-NORM 
          0                 1           2             2    2     1       0.6914661345E-02       2    2    1         0.3606873414E+00      0.7208163141E+00
          0                 2           2             2    2     1      -0.6726096300E-03       2    2    1        -0.3606884255E-01      0.7128696930E-01
          0                 3           1             2    2     1       0.4580220627E-04       2    2    1         0.2524819051E-02      0.4983953497E-02

    ------------------------------------------------
       NWT REQUIRED            3 OUTER ITERATIONS 
       AND A TOTAL OF          5 INNER ITERATIONS.
    ------------------------------------------------

 NO OUTPUT CONTROL FOR STRESS PERIOD    4   TIME STEP   26
 
 SOLVING FOR HEAD 
                                                   Max.-Head-Change                         Max.-Flux-Residual
  Residual-Control   Outer-Iter.   Inner-Iter.     Column Row Layer    Maximum-Head-Change  Column Row Layer    Maximum-Flux-Residual          L2-NORM 
          0                 1           2             2    2     1       0.6877928148E-02       2    2    1         0.3587569838E+00      0.7142940048E+00
          0                 2           2             2    2     1      -0.6690364662E-03       2    2    1        -0.3587580511E-01      0.7074281284E-01
          0                 3           1             2    2     1       0.4555888721E-04       2    2    1         0.2511306434E-02      0.4947103612E-02

    ------------------------------------------------
       NWT REQUIRED            3 OUTER ITERATIONS 
       AND A TOTAL OF          5 INNER ITERATIONS.
    ------------------------------------------------

 NO OUTPUT CONTROL FOR STRESS PERIOD    4   TIME STEP   27
 
 SOLVING FOR HEAD 
                                                   Max.-Head-Change                         Max.-Flux-Residual
  Residual-Control   Outer-Iter.   Inner-Iter.     Column Row Layer    Maximum-Head-Change  Column Row Layer    Maximum-Flux-Residual          L2-NORM 
          0                 1           2             2    2     1       0.6841597596E-02       2    2    1         0.3568478487E+00      0.7082195294E+00
          0                 2           2             2    2     1      -0.6655024694E-03       2    2    1        -0.3568488996E-01      0.7022668479E-01
          0                 3           1             2    2     1       0.4531823570E-04       2    2    1         0.2497942389E-02      0.4911389621E-02

    ------------------------------------------------
       NWT REQUIRED            3 OUTER ITERATIONS 
       AND A TOTAL OF          5 INNER ITERATIONS.
    ------------------------------------------------

 NO OUTPUT CONTROL FOR STRESS PERIOD    4   TIME STEP   28
 
 SOLVING FOR HEAD 
                                                   Max.-Head-Change                         Max.-Flux-Residual
  Residual-Control   Outer-Iter.   Inner-Iter.     Column Row Layer    Maximum-Head-Change  Column Row Layer    Maximum-Flux-Residual          L2-NORM 
          0                 1           2             2    2     1       0.6805750388E-02       2    2    1         0.3549641547E+00      0.7025663461E+00
          0                 2           2             2    2     1      -0.6620154891E-03       2    2    1        -0.3549651895E-01      0.6973929998E-01
          0                 3           1             2    2     1       0.4508078567E-04       2    2    1         0.2484756418E-02      0.4878046964E-02

    ------------------------------------------------
       NWT REQUIRED            3 OUTER ITERATIONS 
       AND A TOTAL OF          5 INNER ITERATIONS.
    ------------------------------------------------

 NO OUTPUT CONTROL FOR STRESS PERIOD    4   TIME STEP   29
 
 SOLVING FOR HEAD 
                                                   Max.-Head-Change                         Max.-Flux-Residual
  Residual-Control   Outer-Iter.   Inner-Iter.     Column Row Layer    Maximum-Head-Change  Column Row Layer    Maximum-Flux-Residual          L2-NORM 
          0                 1           2             2    2     1       0.5350702560E-02       2    2    1         0.2788864371E+00      0.6936708261E+00
          0                 2           2             2    2     1      -0.5204783242E-03       2    2    1        -0.2788870164E-01      0.5964355125E-01
          0                 3           1             2    2     1       0.3544263565E-04       2    2    1         0.1952209401E-02      0.4165078787E-02

    ------------------------------------------------
       NWT REQUIRED            3 OUTER ITERATIONS 
       AND A TOTAL OF          5 INNER ITERATIONS.
    ------------------------------------------------

 NO OUTPUT CONTROL FOR STRESS PERIOD    4   TIME STEP   30



 STREAM LISTING     PERIOD      4   STEP       30

 LAYER ROW COL. STREAM  RCH.  FLOW INTO     FLOW TO   FLOW OUT OF   OVRLND.     DIRECT     STREAM       STREAM     STREAM     STREAM   STREAMBED  STREAMBED
                SEG.NO.  NO.  STRM. RCH.    AQUIFER    STRM. RCH.    RUNOFF     PRECIP       ET          HEAD       DEPTH      WIDTH   CONDCTNC.   GRADIENT

   1    1    1     1     1    6.2247E+01  3.7977E-01   6.1867E+01  0.000E+00  0.000E+00  0.000E+00  1.09460E+03  1.553E+00  1.854E+01  8.342E-02  1.518E+00
   1    2    2     1     2    6.1867E+01  5.8816E-01   6.1279E+01  0.000E+00  0.000E+00  0.000E+00  1.08961E+03  1.547E+00  1.848E+01  1.294E-01  1.516E+00
   1    3    3     1     3    6.1279E+01  5.0162E-01   6.0777E+01  0.000E+00  0.000E+00  0.000E+00  1.08396E+03  1.540E+00  1.841E+01  1.105E-01  1.513E+00
   1    3    4     1     4    6.0777E+01  4.6193E-01   6.0316E+01  0.000E+00  0.000E+00  0.000E+00  1.07894E+03  1.534E+00  1.836E+01  1.019E-01  1.511E+00
   1    4    5     2     1    5.8316E+01  3.9026E-01   5.7925E+01  0.000E+00  0.000E+00  0.000E+00  1.07394E+03  2.003E+00  1.200E+01  7.800E-02  1.668E+00
   1    5    6     2     2    5.7925E+01  2.9977E-01   5.7626E+01  0.000E+00  0.000E+00  0.000E+00  1.06851E+03  1.996E+00  1.200E+01  6.000E-02  1.665E+00
   1    6    6     2     3    5.7626E+01  2.9940E-01   5.7326E+01  0.000E+00  0.000E+00  0.000E+00  1.06378E+03  1.990E+00  1.200E+01  6.000E-02  1.663E+00
   1    7    6     2     4    5.7326E+01  2.9902E-01   5.7027E+01  0.000E+00  0.000E+00  0.000E+00  1.05906E+03  1.984E+00  1.200E+01  6.000E-02  1.661E+00
   1    8    6     2     5    5.7027E+01  2.9865E-01   5.6728E+01  0.000E+00  0.000E+00  0.000E+00  1.05434E+03  1.977E+00  1.200E+01  6.000E-02  1.659E+00
   1    3    5     3     1    2.0000E+00  2.8252E-01   1.7175E+00  0.000E+00  0.000E+00  0.000E+00  1.07555E+03  1.909E+00  9.636E+00  7.227E-02  1.955E+00
   1    3    6     3     2    1.7175E+00  2.4905E-01   1.4684E+00  0.000E+00  0.000E+00  0.000E+00  1.07264E+03  1.727E+00  8.909E+00  6.682E-02  1.864E+00
   1    3    7     3     3    1.4684E+00  1.9718E-01   1.2712E+00  0.000E+00  0.000E+00  0.000E+00  1.06987E+03  1.555E+00  8.218E+00  5.547E-02  1.777E+00
   1    4    8     3     4    1.2712E+00  2.2567E-01   1.0456E+00  0.000E+00  0.000E+00  0.000E+00  1.06682E+03  1.364E+00  7.455E+00  6.709E-02  1.682E+00
   1    5    8     3     5    1.0456E+00  1.5790E-01   8.8768E-01  0.000E+00  0.000E+00  0.000E+00  1.06362E+03  1.164E+00  6.655E+00  4.991E-02  1.582E+00
   1    6    8     3     6    8.8768E-01  5.5980E-02   8.3170E-01  0.000E+00  0.000E+00  0.000E+00  1.06158E+03  1.036E+00  6.145E+00  1.844E-02  1.518E+00
   1    5   10     4     1    1.0000E+01  9.0919E-02   9.9091E+00  0.000E+00  0.000E+00  0.000E+00  1.07836E+03  6.368E-01  1.000E+01  2.500E-02  1.212E+00
   1    5    9     4     2    9.9091E+00  1.8158E-01   9.7275E+00  0.000E+00  0.000E+00  0.000E+00  1.07154E+03  6.315E-01  1.000E+01  5.000E-02  1.211E+00
   1    6    8     4     3    9.7275E+00  1.2689E-01   9.6006E+00  0.000E+00  0.000E+00  0.000E+00  1.06381E+03  6.256E-01  1.000E+01  3.500E-02  1.209E+00
   1    6    8     5     1    1.0432E+01  2.2686E-01   1.0205E+01  0.000E+00  0.000E+00  0.000E+00  1.05868E+03  6.790E-01  1.542E+01  6.166E-02  1.226E+00
   1    7    7     5     2    1.0205E+01  2.7894E-01   9.9265E+00  0.000E+00  0.000E+00  0.000E+00  1.05417E+03  6.732E-01  1.519E+01  7.594E-02  1.224E+00
   1    8    7     5     3    9.9265E+00  1.9221E-01   9.7343E+00  0.000E+00  0.000E+00  0.000E+00  1.04992E+03  6.676E-01  1.497E+01  5.241E-02  1.223E+00
   1    8    6     5     4    9.7343E+00  1.3577E-01   9.5985E+00  0.000E+00  0.000E+00  0.000E+00  1.04691E+03  6.637E-01  1.482E+01  3.706E-02  1.221E+00
   1    9    6     6     1    6.6327E+01  3.1138E-01   6.6016E+01  0.000E+00  0.000E+00  0.000E+00  1.04492E+03  2.190E+00  1.200E+01  6.000E-02  1.730E+00
   1   10    7     6     2    6.6016E+01  3.1101E-01   6.5705E+01  0.000E+00  0.000E+00  0.000E+00  1.04037E+03  2.183E+00  1.200E+01  6.000E-02  1.728E+00
   1   11    7     6     3    6.5705E+01  3.1064E-01   6.5394E+01  0.000E+00  0.000E+00  0.000E+00  1.03581E+03  2.177E+00  1.200E+01  6.000E-02  1.726E+00
   1   12    7     6     4    6.5394E+01  3.1026E-01   6.5084E+01  0.000E+00  0.000E+00  0.000E+00  1.03126E+03  2.171E+00  1.200E+01  6.000E-02  1.724E+00
   1   13    7     6     5    6.5084E+01  2.1634E-02   6.5062E+01  0.000E+00  0.000E+00  0.000E+00  1.02808E+03  2.168E+00  1.200E+01  2.400E-02  3.005E-01
   1   14    9     7     1    1.5000E+02  1.3316E+00   1.4867E+02  0.000E+00  0.000E+00  0.000E+00  1.03987E+03  2.288E+00  5.529E+01  5.593E-01  7.936E-01
   1   13    8     7     2    1.4867E+02  1.8148E+00   1.4685E+02  0.000E+00  0.000E+00  0.000E+00  1.03478E+03  2.279E+00  5.526E+01  6.148E-01  9.840E-01
   1   13    7     7     3    1.4685E+02  1.4044E+00   1.4545E+02  0.000E+00  0.000E+00  0.000E+00  1.02969E+03  2.271E+00  5.522E+01  5.585E-01  8.382E-01
   1   13    6     8     1    2.1051E+02  1.0053E+00   2.0951E+02  0.000E+00  0.000E+00  0.000E+00  1.02507E+03  3.196E+00  4.634E+01  4.722E-01  7.097E-01
   1   13    5     8     2    2.0951E+02  1.9026E-01   2.0932E+02  0.000E+00  0.000E+00  0.000E+00  1.01882E+03  3.192E+00  4.629E+01  4.717E-01  1.345E-01
   1   13    4     8     3    2.0932E+02 -2.7178E+00   2.1203E+02  0.000E+00  0.000E+00  0.000E+00  1.01257E+03  3.200E+00  4.639E+01  4.728E+00 -1.916E-01
   1   13    3     8     4    2.1203E+02 -3.8949E+00   2.1593E+02  0.000E+00  0.000E+00  0.000E+00  1.00634E+03  3.218E+00  4.666E+01  4.755E+00 -2.730E-01
   1   13    2     8     5    2.1593E+02 -2.7472E+00   2.1868E+02  0.000E+00  0.000E+00  0.000E+00  1.00011E+03  3.237E+00  4.693E+01  4.783E+00 -1.915E-01
   1   13    1     8     6    2.1868E+02 -2.0239E+00   2.2070E+02  0.000E+00  0.000E+00  0.000E+00  9.95125E+02  3.250E+00  4.713E+01  2.881E+00 -2.341E-01





UNSATURATED ZONE PACKAGE VOLUMETRIC BUDGET FOR  TIME STEP    30 STRESS PERIOD    4
  ------------------------------------------------------------------------------



     CUMULATIVE VOLUMES      L**3       RATES FOR THIS TIME STEP      L**3/T
     ------------------                 ------------------------

           IN:                                      IN:
           ---                                      ---
        INFILTRATION =    34848397.6743          INFILTRATION =           4.4075

          OUT:                                     OUT:
          ----                                     ----
              UZF ET =     5720616.2441                UZF ET =           0.7253
        UZF RECHARGE =      388446.0629          UZF RECHARGE =           0.0369

            IN - OUT =    28739335.3673              IN - OUT =           3.6453

          STORAGE:                                 STORAGE:
          --------                                 --------
      STORAGE CHANGE =    28739903.5788        STORAGE CHANGE =           3.6453

 PERCENT DISCREPANCY IS DIFFERENCE BETWEEN IN-OUT MINUS CHANGE IN STORAGE
 DIVIDED BY THE AVERAGE OF IN AND OUT TIMES 100

 PERCENT DISCREPANCY =          -0.00     PERCENT DISCREPANCY =           0.00






1
  VOLUMETRIC BUDGET FOR AGRICULTURAL FIELDS AT TIME STEP   30, STRESS PERIOD   4
  ------------------------------------------------------------------------------

     CUMULATIVE VOLUMES      L**3       RATES FOR THIS TIME STEP      L**3/T
     ------------------                 ------------------------

           IN:                                      IN:
           ---                                      ---
               AG WELLS  =           0.0000                 AG WELLS  =           0.0000
      DIVERSION SEGMENTS =           0.0000        DIVERSION SEGMENTS =           0.0000
           GW IRRIGATION =           0.0000             GW IRRIGATION =           0.0000
           SW IRRIGATION =           0.0000             SW IRRIGATION =           0.0000
        SYSTEM LOSSES GW =           0.0000          SYSTEM LOSSES GW =           0.0000
        SYSTEM LOSSES SW =           0.0000          SYSTEM LOSSES SW =           0.0000

                TOTAL IN =           0.0000                  TOTAL IN =           0.0000

          OUT:                                     OUT:
          ----                                     ----
               AG WELLS  =           0.0000                 AG WELLS  =           0.0000
      DIVERSION SEGMENTS =           0.0000        DIVERSION SEGMENTS =           0.0000
           GW IRRIGATION =           0.0000             GW IRRIGATION =           0.0000
           SW IRRIGATION =           0.0000             SW IRRIGATION =           0.0000
        SYSTEM LOSSES GW =           0.0000          SYSTEM LOSSES GW =           0.0000
        SYSTEM LOSSES SW =           0.0000          SYSTEM LOSSES SW =           0.0000

               TOTAL OUT =           0.0000                 TOTAL OUT =           0.0000

                IN - OUT =           0.0000                  IN - OUT =           0.0000

     PERCENT DISCREPANCY =           0.00         PERCENT DISCREPANCY =           0.00



1
  VOLUMETRIC BUDGET FOR ENTIRE MODEL AT END OF TIME STEP   30, STRESS PERIOD   4
  ------------------------------------------------------------------------------

     CUMULATIVE VOLUMES      L**3       RATES FOR THIS TIME STEP      L**3/T
     ------------------                 ------------------------

           IN:                                      IN:
           ---                                      ---
             STORAGE     =     4274545.5000               STORAGE     =           1.1601
       CONSTANT HEAD     =           0.0000         CONSTANT HEAD     =           0.0000
     HEAD DEP BOUNDS     =     2276621.5000       HEAD DEP BOUNDS     =           0.2855
      STREAM LEAKAGE     =    98973096.0000        STREAM LEAKAGE     =          12.9313
        UZF RECHARGE     =      388445.9375          UZF RECHARGE     =       3.6860E-02
               GW ET     =           0.0000                 GW ET     =           0.0000
     SURFACE LEAKAGE     =           0.0000       SURFACE LEAKAGE     =           0.0000
           AG WELLS      =           0.0000             AG WELLS      =           0.0000

                TOTAL IN =   105912712.0000                  TOTAL IN =          14.4137

          OUT:                                     OUT:
          ----                                     ----
             STORAGE     =    22503912.0000               STORAGE     =           2.7330
       CONSTANT HEAD     =           0.0000         CONSTANT HEAD     =           0.0000
     HEAD DEP BOUNDS     =     2327725.5000       HEAD DEP BOUNDS     =           0.2974
      STREAM LEAKAGE     =    81085912.0000        STREAM LEAKAGE     =          11.3838
        UZF RECHARGE     =           0.0000          UZF RECHARGE     =           0.0000
               GW ET     =       1.1790E-06                 GW ET     =           0.0000
     SURFACE LEAKAGE     =           0.0000       SURFACE LEAKAGE     =           0.0000
           AG WELLS      =           0.0000             AG WELLS      =           0.0000

               TOTAL OUT =   105917552.0000                 TOTAL OUT =          14.4143

                IN - OUT =       -4840.0000                  IN - OUT =      -5.8937E-04

     PERCENT DISCREPANCY =          -0.00         PERCENT DISCREPANCY =          -0.00






         TIME SUMMARY AT END OF TIME STEP   30 IN STRESS PERIOD    4
                    SECONDS     MINUTES      HOURS       DAYS        YEARS
                    -----------------------------------------------------------
   TIME STEP LENGTH  87667.      1461.1      24.352      1.0147     2.77799E-03
 STRESS PERIOD TIME 2.63000E+06  43833.      730.56      30.440     8.33397E-02
         TOTAL TIME 7.97639E+06 1.32940E+05  2215.7      92.319     0.25276    
1
1
                            STRESS PERIOD NO.    5, LENGTH =   2630000.    
                            -----------------------------------------------

                              NUMBER OF TIME STEPS =    30

                               MULTIPLIER FOR DELT =     1.000

                            INITIAL TIME STEP SIZE =   87666.66    

 REUSING NON-PARAMETER GHB CELLS FROM LAST STRESS PERIOD

      2 GHB CELLS

 REUSING STREAM SEGMENT DATA FROM LAST STRESS PERIOD



            AREAL INFILTRATION RATE
 READING ON UNIT   19 WITH FORMAT: (10F4.0)            

            1           2           3           4           5           6           7           8           9          10
 ........................................................................................................................
   1   1.2000E-09   0.000       0.000       0.000       0.000       0.000       0.000       0.000       0.000       0.000    
   2   2.1000E-09  2.0000E-09  8.0000E-10  8.5000E-09   0.000       0.000       0.000       0.000       0.000       0.000    
   3   5.0000E-10  1.1000E-09  8.8000E-09  5.5000E-09   0.000       0.000       0.000       0.000       0.000       0.000    
   4   8.5000E-09  1.1000E-09  1.1000E-09  1.1000E-09  2.0000E-09   0.000       0.000       0.000       0.000       0.000    
   5   8.5000E-09  1.1000E-09  1.1000E-09  1.1000E-09  1.1000E-09   0.000       0.000       0.000       0.000       0.000    
   6   8.5000E-09  5.2000E-09  2.1000E-09  1.1000E-09  1.5000E-09   0.000       0.000       0.000       0.000       0.000    
   7   8.5000E-09  5.2000E-09  2.1000E-09  1.2000E-09  2.0000E-09   0.000       0.000       0.000       0.000       0.000    
   8   5.0000E-10  5.2000E-09  2.1000E-09  1.2000E-09  5.0000E-09   0.000       0.000       0.000       0.000       0.000    
   9   5.0000E-10  5.2000E-09  2.1000E-09  1.2000E-09  5.0000E-09   0.000       0.000       0.000       0.000       0.000    
  10   5.0000E-10  5.2000E-09  2.1000E-09  1.2000E-09  5.8000E-09   0.000       0.000       0.000       0.000       0.000    
  11   1.0000E-10  1.1000E-09  1.1000E-09  1.2000E-09  5.0000E-09   0.000       0.000       0.000       0.000       0.000    
  12   1.1000E-09  1.1000E-09  1.1000E-09  1.1000E-09  2.0000E-09   0.000       0.000       0.000       0.000       0.000    
  13   1.1000E-09  2.2000E-09  2.2000E-09  2.1000E-09  1.0000E-09   0.000       0.000       0.000       0.000       0.000    
  14   2.0000E-10  5.5000E-09  5.5000E-09  5.2000E-09  1.0000E-09   0.000       0.000       0.000       0.000       0.000    
  15    0.000      8.8000E-09  8.8000E-09   0.000       0.000       0.000       0.000       0.000       0.000       0.000    

                  ET RATE =  2.500000E-08

 USING ET EXTINCTION DEPTH FROM PREVIOUS STRESS PERIOD. CURRENT PERIOD IS:       5

 USING EXTINCTION WATER CONTENT FROM PREVIOUS STRESS PERIOD. CURRENT PERIOD IS:       5

 USING AIR ENTRY PRESSURE FROM PREVIOUS STRESS PERIOD. CURRENT PERIOD IS:       5

 USING ROOT PRESSURE HEAD FROM PREVIOUS STRESS PERIOD. CURRENT PERIOD IS:       5

 USING ROOT ACTIVITY FROM PREVIOUS STRESS PERIOD. CURRENT PERIOD IS:       5

 PROCESSING AG STRESS PERIOD DATA

 READING AG STRESS PERIOD DATA

 READING IRRIGATION WELL

 END PROCESSING AG STRESS PERIOD DATA OPTIONS
 
 SOLVING FOR HEAD 
                                                   Max.-Head-Change                         Max.-Flux-Residual
  Residual-Control   Outer-Iter.   Inner-Iter.     Column Row Layer    Maximum-Head-Change  Column Row Layer    Maximum-Flux-Residual          L2-NORM 
          0                 1           2             4   13     1      -0.1621893756E-01       4   13    1        -0.9327506068E+00      0.1621244152E+01
          0                 2           2             2   13     1       0.1451837794E-02       2   13    1         0.8445242881E-01      0.1190285498E+00
          0                 3           1             2   13     1      -0.9533504871E-04       2   13    1        -0.5701144613E-02      0.8075780018E-02

    ------------------------------------------------
       NWT REQUIRED            3 OUTER ITERATIONS 
       AND A TOTAL OF          5 INNER ITERATIONS.
    ------------------------------------------------

 NO OUTPUT CONTROL FOR STRESS PERIOD    5   TIME STEP    1
 
 SOLVING FOR HEAD 
                                                   Max.-Head-Change                         Max.-Flux-Residual
  Residual-Control   Outer-Iter.   Inner-Iter.     Column Row Layer    Maximum-Head-Change  Column Row Layer    Maximum-Flux-Residual          L2-NORM 
          0                 1           2             4   13     1      -0.1530560725E-01       4   13    1        -0.8798522433E+00      0.1535437558E+01
          0                 2           2             4   13     1       0.1476308028E-02       4   13    1         0.8725774270E-01      0.1499100949E+00
          0                 3           1             4   13     1      -0.9935093783E-04       4   13    1        -0.6037538191E-02      0.1156781039E-01

    ------------------------------------------------
       NWT REQUIRED            3 OUTER ITERATIONS 
       AND A TOTAL OF          5 INNER ITERATIONS.
    ------------------------------------------------

 OUTPUT CONTROL FOR STRESS PERIOD    5   TIME STEP    2
    PRINT BUDGET
    SAVE BUDGET
 UBDSV1 SAVING "         STORAGE" ON UNIT 102 AT TIME STEP  2, STRESS PERIOD   5
 UBDSV2 SAVING "   CONSTANT HEAD" ON UNIT 102 AT TIME STEP  2, STRESS PERIOD   5
 UBDSV1 SAVING "FLOW RIGHT FACE " ON UNIT 102 AT TIME STEP  2, STRESS PERIOD   5
 UBDSV1 SAVING "FLOW FRONT FACE " ON UNIT 102 AT TIME STEP  2, STRESS PERIOD   5

  HEAD DEP BOUNDS   PERIOD    5   STEP     2
 BOUNDARY      1   LAYER   1   ROW    13   COL     1   RATE   -0.296908    
 BOUNDARY      2   LAYER   1   ROW    14   COL     9   RATE    0.285471    



 STREAM LISTING     PERIOD      5   STEP        2

 LAYER ROW COL. STREAM  RCH.  FLOW INTO     FLOW TO   FLOW OUT OF   OVRLND.     DIRECT     STREAM       STREAM     STREAM     STREAM   STREAMBED  STREAMBED
                SEG.NO.  NO.  STRM. RCH.    AQUIFER    STRM. RCH.    RUNOFF     PRECIP       ET          HEAD       DEPTH      WIDTH   CONDCTNC.   GRADIENT

   1    1    1     1     1    2.8000E+01  2.5860E-01   2.7741E+01  0.000E+00  0.000E+00  0.000E+00  1.09427E+03  1.221E+00  1.361E+01  6.126E-02  1.407E+00
   1    2    2     1     2    2.7741E+01  4.0002E-01   2.7341E+01  0.000E+00  0.000E+00  0.000E+00  1.08928E+03  1.217E+00  1.355E+01  9.487E-02  1.406E+00
   1    3    3     1     3    2.7341E+01  3.4070E-01   2.7001E+01  0.000E+00  0.000E+00  0.000E+00  1.08363E+03  1.212E+00  1.348E+01  8.090E-02  1.404E+00
   1    3    4     1     4    2.7001E+01  3.1335E-01   2.6687E+01  0.000E+00  0.000E+00  0.000E+00  1.07861E+03  1.207E+00  1.342E+01  7.448E-02  1.402E+00
   1    4    5     2     1    2.4687E+01  3.2711E-01   2.4360E+01  0.000E+00  0.000E+00  0.000E+00  1.07313E+03  1.194E+00  1.200E+01  7.800E-02  1.398E+00
   1    5    6     2     2    2.4360E+01  2.5111E-01   2.4109E+01  0.000E+00  0.000E+00  0.000E+00  1.06769E+03  1.185E+00  1.200E+01  6.000E-02  1.395E+00
   1    6    6     2     3    2.4109E+01  2.5067E-01   2.3858E+01  0.000E+00  0.000E+00  0.000E+00  1.06297E+03  1.178E+00  1.200E+01  6.000E-02  1.393E+00
   1    7    6     2     4    2.3858E+01  2.5023E-01   2.3608E+01  0.000E+00  0.000E+00  0.000E+00  1.05825E+03  1.170E+00  1.200E+01  6.000E-02  1.390E+00
   1    8    6     2     5    2.3608E+01  2.4978E-01   2.3358E+01  0.000E+00  0.000E+00  0.000E+00  1.05352E+03  1.163E+00  1.200E+01  6.000E-02  1.388E+00
   1    3    5     3     1    2.0000E+00  2.8252E-01   1.7175E+00  0.000E+00  0.000E+00  0.000E+00  1.07555E+03  1.909E+00  9.636E+00  7.227E-02  1.955E+00
   1    3    6     3     2    1.7175E+00  2.4905E-01   1.4684E+00  0.000E+00  0.000E+00  0.000E+00  1.07264E+03  1.727E+00  8.909E+00  6.682E-02  1.864E+00
   1    3    7     3     3    1.4684E+00  1.9718E-01   1.2712E+00  0.000E+00  0.000E+00  0.000E+00  1.06987E+03  1.555E+00  8.218E+00  5.547E-02  1.777E+00
   1    4    8     3     4    1.2712E+00  2.2567E-01   1.0456E+00  0.000E+00  0.000E+00  0.000E+00  1.06682E+03  1.364E+00  7.455E+00  6.709E-02  1.682E+00
   1    5    8     3     5    1.0456E+00  1.5790E-01   8.8768E-01  0.000E+00  0.000E+00  0.000E+00  1.06362E+03  1.164E+00  6.655E+00  4.991E-02  1.582E+00
   1    6    8     3     6    8.8768E-01  5.5980E-02   8.3170E-01  0.000E+00  0.000E+00  0.000E+00  1.06158E+03  1.036E+00  6.145E+00  1.844E-02  1.518E+00
   1    5   10     4     1    1.0000E+01  9.0919E-02   9.9091E+00  0.000E+00  0.000E+00  0.000E+00  1.07836E+03  6.368E-01  1.000E+01  2.500E-02  1.212E+00
   1    5    9     4     2    9.9091E+00  1.8158E-01   9.7275E+00  0.000E+00  0.000E+00  0.000E+00  1.07154E+03  6.315E-01  1.000E+01  5.000E-02  1.211E+00
   1    6    8     4     3    9.7275E+00  1.2689E-01   9.6006E+00  0.000E+00  0.000E+00  0.000E+00  1.06381E+03  6.256E-01  1.000E+01  3.500E-02  1.209E+00
   1    6    8     5     1    1.0432E+01  2.2686E-01   1.0205E+01  0.000E+00  0.000E+00  0.000E+00  1.05868E+03  6.790E-01  1.542E+01  6.166E-02  1.226E+00
   1    7    7     5     2    1.0205E+01  2.7894E-01   9.9265E+00  0.000E+00  0.000E+00  0.000E+00  1.05417E+03  6.732E-01  1.519E+01  7.594E-02  1.224E+00
   1    8    7     5     3    9.9265E+00  1.9221E-01   9.7343E+00  0.000E+00  0.000E+00  0.000E+00  1.04992E+03  6.676E-01  1.497E+01  5.241E-02  1.223E+00
   1    8    6     5     4    9.7343E+00  1.3577E-01   9.5985E+00  0.000E+00  0.000E+00  0.000E+00  1.04691E+03  6.637E-01  1.482E+01  3.706E-02  1.221E+00
   1    9    6     6     1    3.2957E+01  2.6627E-01   3.2691E+01  0.000E+00  0.000E+00  0.000E+00  1.04417E+03  1.438E+00  1.200E+01  6.000E-02  1.479E+00
   1   10    7     6     2    3.2691E+01  2.6584E-01   3.2425E+01  0.000E+00  0.000E+00  0.000E+00  1.03961E+03  1.431E+00  1.200E+01  6.000E-02  1.477E+00
   1   11    7     6     3    3.2425E+01  2.6542E-01   3.2159E+01  0.000E+00  0.000E+00  0.000E+00  1.03506E+03  1.424E+00  1.200E+01  6.000E-02  1.475E+00
   1   12    7     6     4    3.2159E+01  2.6500E-01   3.1894E+01  0.000E+00  0.000E+00  0.000E+00  1.03051E+03  1.417E+00  1.200E+01  6.000E-02  1.472E+00
   1   13    7     6     5    3.1894E+01  3.4989E-03   3.1891E+01  0.000E+00  0.000E+00  0.000E+00  1.02732E+03  1.413E+00  1.200E+01  2.400E-02  4.860E-02
   1   14    9     7     1    1.5000E+02  1.3316E+00   1.4867E+02  0.000E+00  0.000E+00  0.000E+00  1.03987E+03  2.288E+00  5.529E+01  5.593E-01  7.936E-01
   1   13    8     7     2    1.4867E+02  1.8145E+00   1.4685E+02  0.000E+00  0.000E+00  0.000E+00  1.03478E+03  2.279E+00  5.526E+01  6.148E-01  9.838E-01
   1   13    7     7     3    1.4685E+02  1.4038E+00   1.4545E+02  0.000E+00  0.000E+00  0.000E+00  1.02969E+03  2.271E+00  5.522E+01  5.585E-01  8.379E-01
   1   13    6     8     1    1.7734E+02  8.5607E-01   1.7648E+02  0.000E+00  0.000E+00  0.000E+00  1.02487E+03  2.997E+00  4.345E+01  4.428E-01  6.445E-01
   1   13    5     8     2    1.7648E+02  9.1263E-02   1.7639E+02  0.000E+00  0.000E+00  0.000E+00  1.01862E+03  2.994E+00  4.341E+01  4.423E-01  6.877E-02
   1   13    4     8     3    1.7639E+02 -3.2900E+00   1.7968E+02  0.000E+00  0.000E+00  0.000E+00  1.01238E+03  3.004E+00  4.356E+01  4.438E+00 -2.471E-01
   1   13    3     8     4    1.7968E+02 -4.3962E+00   1.8408E+02  0.000E+00  0.000E+00  0.000E+00  1.00615E+03  3.028E+00  4.391E+01  4.474E+00 -3.275E-01
   1   13    2     8     5    1.8408E+02 -3.3009E+00   1.8738E+02  0.000E+00  0.000E+00  0.000E+00  9.99927E+02  3.052E+00  4.425E+01  4.509E+00 -2.440E-01
   1   13    1     8     6    1.8738E+02 -2.3650E+00   1.8975E+02  0.000E+00  0.000E+00  0.000E+00  9.94944E+02  3.069E+00  4.450E+01  2.721E+00 -2.897E-01



 UBDSV3 SAVING "           GW ET" ON UNIT  61 AT TIME STEP  2, STRESS PERIOD   5
 UBDSV3 SAVING "    UZF RECHARGE" ON UNIT  61 AT TIME STEP  2, STRESS PERIOD   5
 UBDSV3 SAVING " SURFACE LEAKAGE" ON UNIT  61 AT TIME STEP  2, STRESS PERIOD   5
 UBDSV3 SAVING "       HORT+DUNN" ON UNIT  61 AT TIME STEP  2, STRESS PERIOD   5
 UBDSV3 SAVING "  STORAGE CHANGE" ON UNIT  61 AT TIME STEP  2, STRESS PERIOD   5


UNSATURATED ZONE PACKAGE VOLUMETRIC BUDGET FOR  TIME STEP     2 STRESS PERIOD    5
  ------------------------------------------------------------------------------



     CUMULATIVE VOLUMES      L**3       RATES FOR THIS TIME STEP      L**3/T
     ------------------                 ------------------------

           IN:                                      IN:
           ---                                      ---
        INFILTRATION =    35623713.0991          INFILTRATION =           4.4364

          OUT:                                     OUT:
          ----                                     ----
              UZF ET =    12013534.7471                UZF ET =          35.5205
        UZF RECHARGE =      388446.0629          UZF RECHARGE =       0.0000E+00

            IN - OUT =    23221732.2892              IN - OUT =         -31.0841

          STORAGE:                                 STORAGE:
          --------                                 --------
      STORAGE CHANGE =    23222300.4204        STORAGE CHANGE =         -31.0841

 PERCENT DISCREPANCY IS DIFFERENCE BETWEEN IN-OUT MINUS CHANGE IN STORAGE
 DIVIDED BY THE AVERAGE OF IN AND OUT TIMES 100

 PERCENT DISCREPANCY =          -0.00     PERCENT DISCREPANCY =           0.00






 

            AG WELLS      PERIOD    5   STEP   2
 AG WELL      1   LAYER   1   ROW     6   COL     4   RATE   -7.680080E-03
 AG WELL      2   LAYER   1   ROW     6   COL     5   RATE   -1.021799E-02
 AG WELL      3   LAYER   1   ROW     7   COL     4   RATE   -5.400441E-03
 AG WELL      4   LAYER   1   ROW     7   COL     5   RATE   -9.294556E-05
 AG WELL      5   LAYER   1   ROW     8   COL     4   RATE   -5.400441E-03
 AG WELL      6   LAYER   1   ROW     8   COL     5   RATE   -1.105885E-04
 
 

        GW IRRIGATION     PERIOD    5   STEP   2
 AG WELL      1   ROW     6   COL     4   RATE    7.680080E-03
 AG WELL      2   ROW     6   COL     5   RATE    1.021799E-02
 AG WELL      3   ROW     7   COL     4   RATE    5.400441E-03
 AG WELL      4   ROW     7   COL     5   RATE    9.294555E-05
 AG WELL      5   ROW     8   COL     4   RATE    5.400441E-03
 AG WELL      6   ROW     8   COL     5   RATE    1.105885E-04
 
1
  VOLUMETRIC BUDGET FOR AGRICULTURAL FIELDS AT TIME STEP    2, STRESS PERIOD   5
  ------------------------------------------------------------------------------

     CUMULATIVE VOLUMES      L**3       RATES FOR THIS TIME STEP      L**3/T
     ------------------                 ------------------------

           IN:                                      IN:
           ---                                      ---
               AG WELLS  =        2533.7876                 AG WELLS  =       2.8902E-02
      DIVERSION SEGMENTS =           0.0000        DIVERSION SEGMENTS =           0.0000
           GW IRRIGATION =           0.0000             GW IRRIGATION =           0.0000
           SW IRRIGATION =           0.0000             SW IRRIGATION =           0.0000
        SYSTEM LOSSES GW =           0.0000          SYSTEM LOSSES GW =           0.0000
        SYSTEM LOSSES SW =           0.0000          SYSTEM LOSSES SW =           0.0000

                TOTAL IN =        2533.7876                  TOTAL IN =       2.8902E-02

          OUT:                                     OUT:
          ----                                     ----
               AG WELLS  =           0.0000                 AG WELLS  =           0.0000
      DIVERSION SEGMENTS =           0.0000        DIVERSION SEGMENTS =           0.0000
           GW IRRIGATION =        2533.7876             GW IRRIGATION =       2.8902E-02
           SW IRRIGATION =           0.0000             SW IRRIGATION =           0.0000
        SYSTEM LOSSES GW =           0.0000          SYSTEM LOSSES GW =           0.0000
        SYSTEM LOSSES SW =           0.0000          SYSTEM LOSSES SW =           0.0000

               TOTAL OUT =        2533.7876                 TOTAL OUT =       2.8902E-02

                IN - OUT =           0.0000                  IN - OUT =           0.0000

     PERCENT DISCREPANCY =           0.00         PERCENT DISCREPANCY =           0.00



1
  VOLUMETRIC BUDGET FOR ENTIRE MODEL AT END OF TIME STEP    2, STRESS PERIOD   5
  ------------------------------------------------------------------------------

     CUMULATIVE VOLUMES      L**3       RATES FOR THIS TIME STEP      L**3/T
     ------------------                 ------------------------

           IN:                                      IN:
           ---                                      ---
             STORAGE     =     4884776.0000               STORAGE     =           3.3638
       CONSTANT HEAD     =           0.0000         CONSTANT HEAD     =           0.0000
     HEAD DEP BOUNDS     =     2326674.0000       HEAD DEP BOUNDS     =           0.2855
      STREAM LEAKAGE     =   101008008.0000        STREAM LEAKAGE     =          11.6063
        UZF RECHARGE     =      388445.9375          UZF RECHARGE     =           0.0000
               GW ET     =           0.0000                 GW ET     =           0.0000
     SURFACE LEAKAGE     =           0.0000       SURFACE LEAKAGE     =           0.0000
           AG WELLS      =           0.0000             AG WELLS      =           0.0000

                TOTAL IN =   108607904.0000                  TOTAL IN =          15.2555

          OUT:                                     OUT:
          ----                                     ----
             STORAGE     =    22786488.0000               STORAGE     =           1.5749
       CONSTANT HEAD     =           0.0000         CONSTANT HEAD     =           0.0000
     HEAD DEP BOUNDS     =     2379806.7500       HEAD DEP BOUNDS     =           0.2969
      STREAM LEAKAGE     =    83443648.0000        STREAM LEAKAGE     =          13.3521
        UZF RECHARGE     =           0.0000          UZF RECHARGE     =           0.0000
               GW ET     =         132.2370                 GW ET     =       1.5084E-03
     SURFACE LEAKAGE     =           0.0000       SURFACE LEAKAGE     =           0.0000
           AG WELLS      =        2533.7876             AG WELLS      =       2.8902E-02

               TOTAL OUT =   108612616.0000                 TOTAL OUT =          15.2543

                IN - OUT =       -4712.0000                  IN - OUT =       1.2531E-03

     PERCENT DISCREPANCY =          -0.00         PERCENT DISCREPANCY =           0.01






         TIME SUMMARY AT END OF TIME STEP    2 IN STRESS PERIOD    5
                    SECONDS     MINUTES      HOURS       DAYS        YEARS
                    -----------------------------------------------------------
   TIME STEP LENGTH  87667.      1461.1      24.352      1.0147     2.77799E-03
 STRESS PERIOD TIME 1.75333E+05  2922.2      48.704      2.0293     5.55598E-03
         TOTAL TIME 8.15173E+06 1.35862E+05  2264.4      94.349     0.25831    
1
 
 SOLVING FOR HEAD 
                                                   Max.-Head-Change                         Max.-Flux-Residual
  Residual-Control   Outer-Iter.   Inner-Iter.     Column Row Layer    Maximum-Head-Change  Column Row Layer    Maximum-Flux-Residual          L2-NORM 
          0                 1           2             4   13     1      -0.1385152692E-01       4   13    1        -0.7960097855E+00      0.1502090394E+01
          0                 2           2             4   13     1       0.1335946221E-02       4   13    1         0.7893635019E-01      0.1439318062E+00
          0                 3           2             4    6     1      -0.1530545181E-03       4    6    1        -0.8716355192E-02      0.1626357175E-01
          0                 4           2             4    6     1      -0.1695619405E-02       4    6    1        -0.9769230260E-01      0.9802557880E-01
          0                 5           1             4    8     1      -0.9704589612E-04       4    7    1        -0.5504005559E-02      0.8881437883E-02

    ------------------------------------------------
       NWT REQUIRED            5 OUTER ITERATIONS 
       AND A TOTAL OF          9 INNER ITERATIONS.
    ------------------------------------------------

 OUTPUT CONTROL FOR STRESS PERIOD    5   TIME STEP    3
    PRINT BUDGET
    SAVE BUDGET
 UBDSV1 SAVING "         STORAGE" ON UNIT 102 AT TIME STEP  3, STRESS PERIOD   5
 UBDSV2 SAVING "   CONSTANT HEAD" ON UNIT 102 AT TIME STEP  3, STRESS PERIOD   5
 UBDSV1 SAVING "FLOW RIGHT FACE " ON UNIT 102 AT TIME STEP  3, STRESS PERIOD   5
 UBDSV1 SAVING "FLOW FRONT FACE " ON UNIT 102 AT TIME STEP  3, STRESS PERIOD   5

  HEAD DEP BOUNDS   PERIOD    5   STEP     3
 BOUNDARY      1   LAYER   1   ROW    13   COL     1   RATE   -0.296653    
 BOUNDARY      2   LAYER   1   ROW    14   COL     9   RATE    0.285472    



 STREAM LISTING     PERIOD      5   STEP        3

 LAYER ROW COL. STREAM  RCH.  FLOW INTO     FLOW TO   FLOW OUT OF   OVRLND.     DIRECT     STREAM       STREAM     STREAM     STREAM   STREAMBED  STREAMBED
                SEG.NO.  NO.  STRM. RCH.    AQUIFER    STRM. RCH.    RUNOFF     PRECIP       ET          HEAD       DEPTH      WIDTH   CONDCTNC.   GRADIENT

   1    1    1     1     1    2.8000E+01  2.5860E-01   2.7741E+01  0.000E+00  0.000E+00  0.000E+00  1.09427E+03  1.221E+00  1.361E+01  6.126E-02  1.407E+00
   1    2    2     1     2    2.7741E+01  4.0002E-01   2.7341E+01  0.000E+00  0.000E+00  0.000E+00  1.08928E+03  1.217E+00  1.355E+01  9.487E-02  1.406E+00
   1    3    3     1     3    2.7341E+01  3.4070E-01   2.7001E+01  0.000E+00  0.000E+00  0.000E+00  1.08363E+03  1.212E+00  1.348E+01  8.090E-02  1.404E+00
   1    3    4     1     4    2.7001E+01  3.1335E-01   2.6687E+01  0.000E+00  0.000E+00  0.000E+00  1.07861E+03  1.207E+00  1.342E+01  7.448E-02  1.402E+00
   1    4    5     2     1    2.4687E+01  3.2711E-01   2.4360E+01  0.000E+00  0.000E+00  0.000E+00  1.07313E+03  1.194E+00  1.200E+01  7.800E-02  1.398E+00
   1    5    6     2     2    2.4360E+01  2.5111E-01   2.4109E+01  0.000E+00  0.000E+00  0.000E+00  1.06769E+03  1.185E+00  1.200E+01  6.000E-02  1.395E+00
   1    6    6     2     3    2.4109E+01  2.5067E-01   2.3858E+01  0.000E+00  0.000E+00  0.000E+00  1.06297E+03  1.178E+00  1.200E+01  6.000E-02  1.393E+00
   1    7    6     2     4    2.3858E+01  2.5023E-01   2.3608E+01  0.000E+00  0.000E+00  0.000E+00  1.05825E+03  1.170E+00  1.200E+01  6.000E-02  1.390E+00
   1    8    6     2     5    2.3608E+01  2.4978E-01   2.3358E+01  0.000E+00  0.000E+00  0.000E+00  1.05352E+03  1.163E+00  1.200E+01  6.000E-02  1.388E+00
   1    3    5     3     1    2.0000E+00  2.8252E-01   1.7175E+00  0.000E+00  0.000E+00  0.000E+00  1.07555E+03  1.909E+00  9.636E+00  7.227E-02  1.955E+00
   1    3    6     3     2    1.7175E+00  2.4905E-01   1.4684E+00  0.000E+00  0.000E+00  0.000E+00  1.07264E+03  1.727E+00  8.909E+00  6.682E-02  1.864E+00
   1    3    7     3     3    1.4684E+00  1.9718E-01   1.2712E+00  0.000E+00  0.000E+00  0.000E+00  1.06987E+03  1.555E+00  8.218E+00  5.547E-02  1.777E+00
   1    4    8     3     4    1.2712E+00  2.2567E-01   1.0456E+00  0.000E+00  0.000E+00  0.000E+00  1.06682E+03  1.364E+00  7.455E+00  6.709E-02  1.682E+00
   1    5    8     3     5    1.0456E+00  1.5790E-01   8.8768E-01  0.000E+00  0.000E+00  0.000E+00  1.06362E+03  1.164E+00  6.655E+00  4.991E-02  1.582E+00
   1    6    8     3     6    8.8768E-01  5.5980E-02   8.3170E-01  0.000E+00  0.000E+00  0.000E+00  1.06158E+03  1.036E+00  6.145E+00  1.844E-02  1.518E+00
   1    5   10     4     1    1.0000E+01  9.0919E-02   9.9091E+00  0.000E+00  0.000E+00  0.000E+00  1.07836E+03  6.368E-01  1.000E+01  2.500E-02  1.212E+00
   1    5    9     4     2    9.9091E+00  1.8158E-01   9.7275E+00  0.000E+00  0.000E+00  0.000E+00  1.07154E+03  6.315E-01  1.000E+01  5.000E-02  1.211E+00
   1    6    8     4     3    9.7275E+00  1.2689E-01   9.6006E+00  0.000E+00  0.000E+00  0.000E+00  1.06381E+03  6.256E-01  1.000E+01  3.500E-02  1.209E+00
   1    6    8     5     1    1.0432E+01  2.2686E-01   1.0205E+01  0.000E+00  0.000E+00  0.000E+00  1.05868E+03  6.790E-01  1.542E+01  6.166E-02  1.226E+00
   1    7    7     5     2    1.0205E+01  2.7894E-01   9.9265E+00  0.000E+00  0.000E+00  0.000E+00  1.05417E+03  6.732E-01  1.519E+01  7.594E-02  1.224E+00
   1    8    7     5     3    9.9265E+00  1.9221E-01   9.7343E+00  0.000E+00  0.000E+00  0.000E+00  1.04992E+03  6.676E-01  1.497E+01  5.241E-02  1.223E+00
   1    8    6     5     4    9.7343E+00  1.3577E-01   9.5985E+00  0.000E+00  0.000E+00  0.000E+00  1.04691E+03  6.637E-01  1.482E+01  3.706E-02  1.221E+00
   1    9    6     6     1    3.2957E+01  2.6627E-01   3.2691E+01  0.000E+00  0.000E+00  0.000E+00  1.04417E+03  1.438E+00  1.200E+01  6.000E-02  1.479E+00
   1   10    7     6     2    3.2691E+01  2.6584E-01   3.2425E+01  0.000E+00  0.000E+00  0.000E+00  1.03961E+03  1.431E+00  1.200E+01  6.000E-02  1.477E+00
   1   11    7     6     3    3.2425E+01  2.6542E-01   3.2159E+01  0.000E+00  0.000E+00  0.000E+00  1.03506E+03  1.424E+00  1.200E+01  6.000E-02  1.475E+00
   1   12    7     6     4    3.2159E+01  2.6500E-01   3.1894E+01  0.000E+00  0.000E+00  0.000E+00  1.03051E+03  1.417E+00  1.200E+01  6.000E-02  1.472E+00
   1   13    7     6     5    3.1894E+01  3.4880E-03   3.1891E+01  0.000E+00  0.000E+00  0.000E+00  1.02732E+03  1.413E+00  1.200E+01  2.400E-02  4.844E-02
   1   14    9     7     1    1.5000E+02  1.3316E+00   1.4867E+02  0.000E+00  0.000E+00  0.000E+00  1.03987E+03  2.288E+00  5.529E+01  5.593E-01  7.936E-01
   1   13    8     7     2    1.4867E+02  1.8143E+00   1.4685E+02  0.000E+00  0.000E+00  0.000E+00  1.03478E+03  2.279E+00  5.526E+01  6.148E-01  9.837E-01
   1   13    7     7     3    1.4685E+02  1.4036E+00   1.4545E+02  0.000E+00  0.000E+00  0.000E+00  1.02969E+03  2.271E+00  5.522E+01  5.585E-01  8.377E-01
   1   13    6     8     1    1.7734E+02  8.5677E-01   1.7648E+02  0.000E+00  0.000E+00  0.000E+00  1.02487E+03  2.997E+00  4.345E+01  4.428E-01  6.450E-01
   1   13    5     8     2    1.7648E+02  9.1694E-02   1.7639E+02  0.000E+00  0.000E+00  0.000E+00  1.01862E+03  2.994E+00  4.341E+01  4.423E-01  6.910E-02
   1   13    4     8     3    1.7639E+02 -3.2347E+00   1.7963E+02  0.000E+00  0.000E+00  0.000E+00  1.01238E+03  3.004E+00  4.355E+01  4.438E+00 -2.429E-01
   1   13    3     8     4    1.7963E+02 -4.3452E+00   1.8397E+02  0.000E+00  0.000E+00  0.000E+00  1.00615E+03  3.027E+00  4.390E+01  4.473E+00 -3.238E-01
   1   13    2     8     5    1.8397E+02 -3.2487E+00   1.8722E+02  0.000E+00  0.000E+00  0.000E+00  9.99926E+02  3.051E+00  4.424E+01  4.508E+00 -2.402E-01
   1   13    1     8     6    1.8722E+02 -2.3488E+00   1.8957E+02  0.000E+00  0.000E+00  0.000E+00  9.94943E+02  3.068E+00  4.449E+01  2.720E+00 -2.878E-01



 UBDSV3 SAVING "           GW ET" ON UNIT  61 AT TIME STEP  3, STRESS PERIOD   5
 UBDSV3 SAVING "    UZF RECHARGE" ON UNIT  61 AT TIME STEP  3, STRESS PERIOD   5
 UBDSV3 SAVING " SURFACE LEAKAGE" ON UNIT  61 AT TIME STEP  3, STRESS PERIOD   5
 UBDSV3 SAVING "       HORT+DUNN" ON UNIT  61 AT TIME STEP  3, STRESS PERIOD   5
 UBDSV3 SAVING "  STORAGE CHANGE" ON UNIT  61 AT TIME STEP  3, STRESS PERIOD   5


UNSATURATED ZONE PACKAGE VOLUMETRIC BUDGET FOR  TIME STEP     3 STRESS PERIOD    5
  ------------------------------------------------------------------------------



     CUMULATIVE VOLUMES      L**3       RATES FOR THIS TIME STEP      L**3/T
     ------------------                 ------------------------

           IN:                                      IN:
           ---                                      ---
        INFILTRATION =    36098361.4163          INFILTRATION =           5.4142

          OUT:                                     OUT:
          ----                                     ----
              UZF ET =    14376804.4915                UZF ET =          26.9575
        UZF RECHARGE =      388446.0629          UZF RECHARGE =       0.0000E+00

            IN - OUT =    21333110.8619              IN - OUT =         -21.5432

          STORAGE:                                 STORAGE:
          --------                                 --------
      STORAGE CHANGE =    21333682.7416        STORAGE CHANGE =         -21.5432

 PERCENT DISCREPANCY IS DIFFERENCE BETWEEN IN-OUT MINUS CHANGE IN STORAGE
 DIVIDED BY THE AVERAGE OF IN AND OUT TIMES 100

 PERCENT DISCREPANCY =          -0.00     PERCENT DISCREPANCY =          -0.00






 

            AG WELLS      PERIOD    5   STEP   3
 AG WELL      1   LAYER   1   ROW     6   COL     4   RATE   -0.543614    
 AG WELL      2   LAYER   1   ROW     6   COL     5   RATE   -4.974700E-03
 AG WELL      3   LAYER   1   ROW     7   COL     4   RATE   -0.226610    
 AG WELL      4   LAYER   1   ROW     7   COL     5   RATE   -4.864431E-03
 AG WELL      5   LAYER   1   ROW     8   COL     4   RATE   -0.226610    
 AG WELL      6   LAYER   1   ROW     8   COL     5   RATE   -6.584005E-05
 
 

        GW IRRIGATION     PERIOD    5   STEP   3
 AG WELL      1   ROW     6   COL     4   RATE    0.543614    
 AG WELL      2   ROW     6   COL     5   RATE    4.974700E-03
 AG WELL      3   ROW     7   COL     4   RATE    0.226610    
 AG WELL      4   ROW     7   COL     5   RATE    4.864431E-03
 AG WELL      5   ROW     8   COL     4   RATE    0.226610    
 AG WELL      6   ROW     8   COL     5   RATE    6.584005E-05
 
1
  VOLUMETRIC BUDGET FOR AGRICULTURAL FIELDS AT TIME STEP    3, STRESS PERIOD   5
  ------------------------------------------------------------------------------

     CUMULATIVE VOLUMES      L**3       RATES FOR THIS TIME STEP      L**3/T
     ------------------                 ------------------------

           IN:                                      IN:
           ---                                      ---
               AG WELLS  =       90791.2891                 AG WELLS  =           1.0067
      DIVERSION SEGMENTS =           0.0000        DIVERSION SEGMENTS =           0.0000
           GW IRRIGATION =           0.0000             GW IRRIGATION =           0.0000
           SW IRRIGATION =           0.0000             SW IRRIGATION =           0.0000
        SYSTEM LOSSES GW =           0.0000          SYSTEM LOSSES GW =           0.0000
        SYSTEM LOSSES SW =           0.0000          SYSTEM LOSSES SW =           0.0000

                TOTAL IN =       90791.2891                  TOTAL IN =           1.0067

          OUT:                                     OUT:
          ----                                     ----
               AG WELLS  =           0.0000                 AG WELLS  =           0.0000
      DIVERSION SEGMENTS =           0.0000        DIVERSION SEGMENTS =           0.0000
           GW IRRIGATION =       90791.2891             GW IRRIGATION =           1.0067
           SW IRRIGATION =           0.0000             SW IRRIGATION =           0.0000
        SYSTEM LOSSES GW =           0.0000          SYSTEM LOSSES GW =           0.0000
        SYSTEM LOSSES SW =           0.0000          SYSTEM LOSSES SW =           0.0000

               TOTAL OUT =       90791.2891                 TOTAL OUT =           1.0067

                IN - OUT =           0.0000                  IN - OUT =           0.0000

     PERCENT DISCREPANCY =           0.00         PERCENT DISCREPANCY =           0.00



1
  VOLUMETRIC BUDGET FOR ENTIRE MODEL AT END OF TIME STEP    3, STRESS PERIOD   5
  ------------------------------------------------------------------------------

     CUMULATIVE VOLUMES      L**3       RATES FOR THIS TIME STEP      L**3/T
     ------------------                 ------------------------

           IN:                                      IN:
           ---                                      ---
             STORAGE     =     5243225.5000               STORAGE     =           4.0888
       CONSTANT HEAD     =           0.0000         CONSTANT HEAD     =           0.0000
     HEAD DEP BOUNDS     =     2351700.5000       HEAD DEP BOUNDS     =           0.2855
      STREAM LEAKAGE     =   102025560.0000        STREAM LEAKAGE     =          11.6070
        UZF RECHARGE     =      388445.9375          UZF RECHARGE     =           0.0000
               GW ET     =           0.0000                 GW ET     =           0.0000
     SURFACE LEAKAGE     =           0.0000       SURFACE LEAKAGE     =           0.0000
           AG WELLS      =           0.0000             AG WELLS      =           0.0000

                TOTAL IN =   110008936.0000                  TOTAL IN =          15.9813

          OUT:                                     OUT:
          ----                                     ----
             STORAGE     =    22917878.0000               STORAGE     =           1.4987
       CONSTANT HEAD     =           0.0000         CONSTANT HEAD     =           0.0000
     HEAD DEP BOUNDS     =     2405813.2500       HEAD DEP BOUNDS     =           0.2967
      STREAM LEAKAGE     =    84598864.0000        STREAM LEAKAGE     =          13.1774
        UZF RECHARGE     =           0.0000          UZF RECHARGE     =           0.0000
               GW ET     =         240.4277                 GW ET     =       1.2341E-03
     SURFACE LEAKAGE     =           0.0000       SURFACE LEAKAGE     =           0.0000
           AG WELLS      =       90791.2891             AG WELLS      =           1.0067

               TOTAL OUT =   110013592.0000                 TOTAL OUT =          15.9807

                IN - OUT =       -4656.0000                  IN - OUT =       5.5218E-04

     PERCENT DISCREPANCY =          -0.00         PERCENT DISCREPANCY =           0.00






         TIME SUMMARY AT END OF TIME STEP    3 IN STRESS PERIOD    5
                    SECONDS     MINUTES      HOURS       DAYS        YEARS
                    -----------------------------------------------------------
   TIME STEP LENGTH  87667.      1461.1      24.352      1.0147     2.77799E-03
 STRESS PERIOD TIME 2.63000E+05  4383.3      73.056      3.0440     8.33397E-03
         TOTAL TIME 8.23939E+06 1.37323E+05  2288.7      95.363     0.26109    
1
 
 SOLVING FOR HEAD 
                                                   Max.-Head-Change                         Max.-Flux-Residual
  Residual-Control   Outer-Iter.   Inner-Iter.     Column Row Layer    Maximum-Head-Change  Column Row Layer    Maximum-Flux-Residual          L2-NORM 
          0                 1           2             4   13     1      -0.1364735047E-01       4   13    1        -0.7920353943E+00      0.1665866673E+01
          0                 2           2             4   13     1       0.1316295257E-02       4   13    1         0.7854429997E-01      0.1525368890E+00
          0                 3           1             4    6     1       0.1006158170E-03       4    6    1         0.5750653223E-02      0.1245897106E-01
          0                 4           1             5    6     1      -0.1006935587E-03       5    6    1        -0.5859456283E-02      0.6420579918E-02
          0                 5           1             5    6     1      -0.7724608773E-04       5    6    1        -0.4497304225E-02      0.5463507990E-02

    ------------------------------------------------
       NWT REQUIRED            5 OUTER ITERATIONS 
       AND A TOTAL OF          7 INNER ITERATIONS.
    ------------------------------------------------

 OUTPUT CONTROL FOR STRESS PERIOD    5   TIME STEP    4
    PRINT BUDGET
    SAVE BUDGET
 UBDSV1 SAVING "         STORAGE" ON UNIT 102 AT TIME STEP  4, STRESS PERIOD   5
 UBDSV2 SAVING "   CONSTANT HEAD" ON UNIT 102 AT TIME STEP  4, STRESS PERIOD   5
 UBDSV1 SAVING "FLOW RIGHT FACE " ON UNIT 102 AT TIME STEP  4, STRESS PERIOD   5
 UBDSV1 SAVING "FLOW FRONT FACE " ON UNIT 102 AT TIME STEP  4, STRESS PERIOD   5

  HEAD DEP BOUNDS   PERIOD    5   STEP     4
 BOUNDARY      1   LAYER   1   ROW    13   COL     1   RATE   -0.296408    
 BOUNDARY      2   LAYER   1   ROW    14   COL     9   RATE    0.285473    



 STREAM LISTING     PERIOD      5   STEP        4

 LAYER ROW COL. STREAM  RCH.  FLOW INTO     FLOW TO   FLOW OUT OF   OVRLND.     DIRECT     STREAM       STREAM     STREAM     STREAM   STREAMBED  STREAMBED
                SEG.NO.  NO.  STRM. RCH.    AQUIFER    STRM. RCH.    RUNOFF     PRECIP       ET          HEAD       DEPTH      WIDTH   CONDCTNC.   GRADIENT

   1    1    1     1     1    2.8000E+01  2.5860E-01   2.7741E+01  0.000E+00  0.000E+00  0.000E+00  1.09427E+03  1.221E+00  1.361E+01  6.126E-02  1.407E+00
   1    2    2     1     2    2.7741E+01  4.0002E-01   2.7341E+01  0.000E+00  0.000E+00  0.000E+00  1.08928E+03  1.217E+00  1.355E+01  9.487E-02  1.406E+00
   1    3    3     1     3    2.7341E+01  3.4070E-01   2.7001E+01  0.000E+00  0.000E+00  0.000E+00  1.08363E+03  1.212E+00  1.348E+01  8.090E-02  1.404E+00
   1    3    4     1     4    2.7001E+01  3.1335E-01   2.6687E+01  0.000E+00  0.000E+00  0.000E+00  1.07861E+03  1.207E+00  1.342E+01  7.448E-02  1.402E+00
   1    4    5     2     1    2.4687E+01  3.2711E-01   2.4360E+01  0.000E+00  0.000E+00  0.000E+00  1.07313E+03  1.194E+00  1.200E+01  7.800E-02  1.398E+00
   1    5    6     2     2    2.4360E+01  2.5111E-01   2.4109E+01  0.000E+00  0.000E+00  0.000E+00  1.06769E+03  1.185E+00  1.200E+01  6.000E-02  1.395E+00
   1    6    6     2     3    2.4109E+01  2.5067E-01   2.3858E+01  0.000E+00  0.000E+00  0.000E+00  1.06297E+03  1.178E+00  1.200E+01  6.000E-02  1.393E+00
   1    7    6     2     4    2.3858E+01  2.5023E-01   2.3608E+01  0.000E+00  0.000E+00  0.000E+00  1.05825E+03  1.170E+00  1.200E+01  6.000E-02  1.390E+00
   1    8    6     2     5    2.3608E+01  2.4978E-01   2.3358E+01  0.000E+00  0.000E+00  0.000E+00  1.05352E+03  1.163E+00  1.200E+01  6.000E-02  1.388E+00
   1    3    5     3     1    2.0000E+00  2.8252E-01   1.7175E+00  0.000E+00  0.000E+00  0.000E+00  1.07555E+03  1.909E+00  9.636E+00  7.227E-02  1.955E+00
   1    3    6     3     2    1.7175E+00  2.4905E-01   1.4684E+00  0.000E+00  0.000E+00  0.000E+00  1.07264E+03  1.727E+00  8.909E+00  6.682E-02  1.864E+00
   1    3    7     3     3    1.4684E+00  1.9718E-01   1.2712E+00  0.000E+00  0.000E+00  0.000E+00  1.06987E+03  1.555E+00  8.218E+00  5.547E-02  1.777E+00
   1    4    8     3     4    1.2712E+00  2.2567E-01   1.0456E+00  0.000E+00  0.000E+00  0.000E+00  1.06682E+03  1.364E+00  7.455E+00  6.709E-02  1.682E+00
   1    5    8     3     5    1.0456E+00  1.5790E-01   8.8768E-01  0.000E+00  0.000E+00  0.000E+00  1.06362E+03  1.164E+00  6.655E+00  4.991E-02  1.582E+00
   1    6    8     3     6    8.8768E-01  5.5980E-02   8.3170E-01  0.000E+00  0.000E+00  0.000E+00  1.06158E+03  1.036E+00  6.145E+00  1.844E-02  1.518E+00
   1    5   10     4     1    1.0000E+01  9.0919E-02   9.9091E+00  0.000E+00  0.000E+00  0.000E+00  1.07836E+03  6.368E-01  1.000E+01  2.500E-02  1.212E+00
   1    5    9     4     2    9.9091E+00  1.8158E-01   9.7275E+00  0.000E+00  0.000E+00  0.000E+00  1.07154E+03  6.315E-01  1.000E+01  5.000E-02  1.211E+00
   1    6    8     4     3    9.7275E+00  1.2689E-01   9.6006E+00  0.000E+00  0.000E+00  0.000E+00  1.06381E+03  6.256E-01  1.000E+01  3.500E-02  1.209E+00
   1    6    8     5     1    1.0432E+01  2.2686E-01   1.0205E+01  0.000E+00  0.000E+00  0.000E+00  1.05868E+03  6.790E-01  1.542E+01  6.166E-02  1.226E+00
   1    7    7     5     2    1.0205E+01  2.7894E-01   9.9265E+00  0.000E+00  0.000E+00  0.000E+00  1.05417E+03  6.732E-01  1.519E+01  7.594E-02  1.224E+00
   1    8    7     5     3    9.9265E+00  1.9221E-01   9.7343E+00  0.000E+00  0.000E+00  0.000E+00  1.04992E+03  6.676E-01  1.497E+01  5.241E-02  1.223E+00
   1    8    6     5     4    9.7343E+00  1.3577E-01   9.5985E+00  0.000E+00  0.000E+00  0.000E+00  1.04691E+03  6.637E-01  1.482E+01  3.706E-02  1.221E+00
   1    9    6     6     1    3.2957E+01  2.6627E-01   3.2691E+01  0.000E+00  0.000E+00  0.000E+00  1.04417E+03  1.438E+00  1.200E+01  6.000E-02  1.479E+00
   1   10    7     6     2    3.2691E+01  2.6584E-01   3.2425E+01  0.000E+00  0.000E+00  0.000E+00  1.03961E+03  1.431E+00  1.200E+01  6.000E-02  1.477E+00
   1   11    7     6     3    3.2425E+01  2.6542E-01   3.2159E+01  0.000E+00  0.000E+00  0.000E+00  1.03506E+03  1.424E+00  1.200E+01  6.000E-02  1.475E+00
   1   12    7     6     4    3.2159E+01  2.6500E-01   3.1894E+01  0.000E+00  0.000E+00  0.000E+00  1.03051E+03  1.417E+00  1.200E+01  6.000E-02  1.472E+00
   1   13    7     6     5    3.1894E+01  3.4779E-03   3.1891E+01  0.000E+00  0.000E+00  0.000E+00  1.02732E+03  1.413E+00  1.200E+01  2.400E-02  4.830E-02
   1   14    9     7     1    1.5000E+02  1.3316E+00   1.4867E+02  0.000E+00  0.000E+00  0.000E+00  1.03987E+03  2.288E+00  5.529E+01  5.593E-01  7.936E-01
   1   13    8     7     2    1.4867E+02  1.8142E+00   1.4685E+02  0.000E+00  0.000E+00  0.000E+00  1.03478E+03  2.279E+00  5.526E+01  6.148E-01  9.836E-01
   1   13    7     7     3    1.4685E+02  1.4033E+00   1.4545E+02  0.000E+00  0.000E+00  0.000E+00  1.02969E+03  2.271E+00  5.522E+01  5.585E-01  8.376E-01
   1   13    6     8     1    1.7734E+02  8.5744E-01   1.7648E+02  0.000E+00  0.000E+00  0.000E+00  1.02487E+03  2.997E+00  4.345E+01  4.428E-01  6.455E-01
   1   13    5     8     2    1.7648E+02  9.2172E-02   1.7639E+02  0.000E+00  0.000E+00  0.000E+00  1.01862E+03  2.994E+00  4.341E+01  4.423E-01  6.946E-02
   1   13    4     8     3    1.7639E+02 -3.1802E+00   1.7957E+02  0.000E+00  0.000E+00  0.000E+00  1.01238E+03  3.003E+00  4.355E+01  4.438E+00 -2.389E-01
   1   13    3     8     4    1.7957E+02 -4.2923E+00   1.8386E+02  0.000E+00  0.000E+00  0.000E+00  1.00615E+03  3.027E+00  4.389E+01  4.473E+00 -3.199E-01
   1   13    2     8     5    1.8386E+02 -3.2006E+00   1.8707E+02  0.000E+00  0.000E+00  0.000E+00  9.99925E+02  3.050E+00  4.423E+01  4.507E+00 -2.367E-01
   1   13    1     8     6    1.8707E+02 -2.3332E+00   1.8940E+02  0.000E+00  0.000E+00  0.000E+00  9.94942E+02  3.067E+00  4.447E+01  2.719E+00 -2.860E-01



 UBDSV3 SAVING "           GW ET" ON UNIT  61 AT TIME STEP  4, STRESS PERIOD   5
 UBDSV3 SAVING "    UZF RECHARGE" ON UNIT  61 AT TIME STEP  4, STRESS PERIOD   5
 UBDSV3 SAVING " SURFACE LEAKAGE" ON UNIT  61 AT TIME STEP  4, STRESS PERIOD   5
 UBDSV3 SAVING "       HORT+DUNN" ON UNIT  61 AT TIME STEP  4, STRESS PERIOD   5
 UBDSV3 SAVING "  STORAGE CHANGE" ON UNIT  61 AT TIME STEP  4, STRESS PERIOD   5


UNSATURATED ZONE PACKAGE VOLUMETRIC BUDGET FOR  TIME STEP     4 STRESS PERIOD    5
  ------------------------------------------------------------------------------



     CUMULATIVE VOLUMES      L**3       RATES FOR THIS TIME STEP      L**3/T
     ------------------                 ------------------------

           IN:                                      IN:
           ---                                      ---
        INFILTRATION =    36651176.0510          INFILTRATION =           6.3059

          OUT:                                     OUT:
          ----                                     ----
              UZF ET =    16335121.4456                UZF ET =          22.3382
        UZF RECHARGE =      388446.0629          UZF RECHARGE =       0.0000E+00

            IN - OUT =    19927608.5426              IN - OUT =         -16.0323

          STORAGE:                                 STORAGE:
          --------                                 --------
      STORAGE CHANGE =    19928180.7852        STORAGE CHANGE =         -16.0323

 PERCENT DISCREPANCY IS DIFFERENCE BETWEEN IN-OUT MINUS CHANGE IN STORAGE
 DIVIDED BY THE AVERAGE OF IN AND OUT TIMES 100

 PERCENT DISCREPANCY =          -0.00     PERCENT DISCREPANCY =          -0.00






 

            AG WELLS      PERIOD    5   STEP   4
 AG WELL      1   LAYER   1   ROW     6   COL     4   RATE   -0.589554    
 AG WELL      2   LAYER   1   ROW     6   COL     5   RATE   -0.104505    
 AG WELL      3   LAYER   1   ROW     7   COL     4   RATE   -0.595000    
 AG WELL      4   LAYER   1   ROW     7   COL     5   RATE   -2.908087E-03
 AG WELL      5   LAYER   1   ROW     8   COL     4   RATE   -0.595000    
 AG WELL      6   LAYER   1   ROW     8   COL     5   RATE   -1.140401E-02
 
 

        GW IRRIGATION     PERIOD    5   STEP   4
 AG WELL      1   ROW     6   COL     4   RATE    0.589554    
 AG WELL      2   ROW     6   COL     5   RATE    0.104505    
 AG WELL      3   ROW     7   COL     4   RATE    0.595000    
 AG WELL      4   ROW     7   COL     5   RATE    2.908087E-03
 AG WELL      5   ROW     8   COL     4   RATE    0.595000    
 AG WELL      6   ROW     8   COL     5   RATE    1.140401E-02
 
1
  VOLUMETRIC BUDGET FOR AGRICULTURAL FIELDS AT TIME STEP    4, STRESS PERIOD   5
  ------------------------------------------------------------------------------

     CUMULATIVE VOLUMES      L**3       RATES FOR THIS TIME STEP      L**3/T
     ------------------                 ------------------------

           IN:                                      IN:
           ---                                      ---
               AG WELLS  =      257215.1094                 AG WELLS  =           1.8984
      DIVERSION SEGMENTS =           0.0000        DIVERSION SEGMENTS =           0.0000
           GW IRRIGATION =           0.0000             GW IRRIGATION =           0.0000
           SW IRRIGATION =           0.0000             SW IRRIGATION =           0.0000
        SYSTEM LOSSES GW =           0.0000          SYSTEM LOSSES GW =           0.0000
        SYSTEM LOSSES SW =           0.0000          SYSTEM LOSSES SW =           0.0000

                TOTAL IN =      257215.1094                  TOTAL IN =           1.8984

          OUT:                                     OUT:
          ----                                     ----
               AG WELLS  =           0.0000                 AG WELLS  =           0.0000
      DIVERSION SEGMENTS =           0.0000        DIVERSION SEGMENTS =           0.0000
           GW IRRIGATION =      257215.1094             GW IRRIGATION =           1.8984
           SW IRRIGATION =           0.0000             SW IRRIGATION =           0.0000
        SYSTEM LOSSES GW =           0.0000          SYSTEM LOSSES GW =           0.0000
        SYSTEM LOSSES SW =           0.0000          SYSTEM LOSSES SW =           0.0000

               TOTAL OUT =      257215.1094                 TOTAL OUT =           1.8984

                IN - OUT =           0.0000                  IN - OUT =           0.0000

     PERCENT DISCREPANCY =           0.00         PERCENT DISCREPANCY =           0.00



1
  VOLUMETRIC BUDGET FOR ENTIRE MODEL AT END OF TIME STEP    4, STRESS PERIOD   5
  ------------------------------------------------------------------------------

     CUMULATIVE VOLUMES      L**3       RATES FOR THIS TIME STEP      L**3/T
     ------------------                 ------------------------

           IN:                                      IN:
           ---                                      ---
             STORAGE     =     5670378.5000               STORAGE     =           4.8725
       CONSTANT HEAD     =           0.0000         CONSTANT HEAD     =           0.0000
     HEAD DEP BOUNDS     =     2376727.0000       HEAD DEP BOUNDS     =           0.2855
      STREAM LEAKAGE     =   103043176.0000        STREAM LEAKAGE     =          11.6078
        UZF RECHARGE     =      388445.9375          UZF RECHARGE     =           0.0000
               GW ET     =           0.0000                 GW ET     =           0.0000
     SURFACE LEAKAGE     =           0.0000       SURFACE LEAKAGE     =           0.0000
           AG WELLS      =           0.0000             AG WELLS      =           0.0000

                TOTAL IN =   111478728.0000                  TOTAL IN =          16.7657

          OUT:                                     OUT:
          ----                                     ----
             STORAGE     =    23041816.0000               STORAGE     =           1.4138
       CONSTANT HEAD     =           0.0000         CONSTANT HEAD     =           0.0000
     HEAD DEP BOUNDS     =     2431798.2500       HEAD DEP BOUNDS     =           0.2964
      STREAM LEAKAGE     =    85739080.0000        STREAM LEAKAGE     =          13.0063
        UZF RECHARGE     =           0.0000          UZF RECHARGE     =           0.0000
               GW ET     =       13432.5352                 GW ET     =           0.1505
     SURFACE LEAKAGE     =           0.0000       SURFACE LEAKAGE     =           0.0000
           AG WELLS      =      257215.1094             AG WELLS      =           1.8984

               TOTAL OUT =   111483344.0000                 TOTAL OUT =          16.7653

                IN - OUT =       -4616.0000                  IN - OUT =       4.3297E-04

     PERCENT DISCREPANCY =          -0.00         PERCENT DISCREPANCY =           0.00






         TIME SUMMARY AT END OF TIME STEP    4 IN STRESS PERIOD    5
                    SECONDS     MINUTES      HOURS       DAYS        YEARS
                    -----------------------------------------------------------
   TIME STEP LENGTH  87667.      1461.1      24.352      1.0147     2.77799E-03
 STRESS PERIOD TIME 3.50667E+05  5844.4      97.407      4.0586     1.11120E-02
         TOTAL TIME 8.32706E+06 1.38784E+05  2313.1      96.378     0.26387    
1
 
 SOLVING FOR HEAD 
                                                   Max.-Head-Change                         Max.-Flux-Residual
  Residual-Control   Outer-Iter.   Inner-Iter.     Column Row Layer    Maximum-Head-Change  Column Row Layer    Maximum-Flux-Residual          L2-NORM 
          0                 1           2             4   13     1      -0.1289105214E-01       4   13    1        -0.7532884271E+00      0.1695783315E+01
          0                 2           2             4   13     1       0.1243369496E-02       4   13    1         0.7470166348E-01      0.1507261659E+00
          0                 3           1             4    6     1       0.9867299220E-04       4    6    1         0.5603701436E-02      0.1189372850E-01

    ------------------------------------------------
       NWT REQUIRED            3 OUTER ITERATIONS 
       AND A TOTAL OF          5 INNER ITERATIONS.
    ------------------------------------------------

 NO OUTPUT CONTROL FOR STRESS PERIOD    5   TIME STEP    5
 
 SOLVING FOR HEAD 
                                                   Max.-Head-Change                         Max.-Flux-Residual
  Residual-Control   Outer-Iter.   Inner-Iter.     Column Row Layer    Maximum-Head-Change  Column Row Layer    Maximum-Flux-Residual          L2-NORM 
          0                 1           2             3   13     1      -0.1149083463E-01       4   13    1        -0.6699245063E+00      0.1681839099E+01
          0                 2           2             4   13     1       0.1106152133E-02       4   13    1         0.6642950453E-01      0.1519408109E+00
          0                 3           1             4    6     1       0.1018323621E-03       4    6    1         0.5779616897E-02      0.1216145049E-01
          0                 4           1             5    8     1      -0.1656731374E-04       5    8    1        -0.9182001925E-03      0.1070707082E-02

    ------------------------------------------------
       NWT REQUIRED            4 OUTER ITERATIONS 
       AND A TOTAL OF          6 INNER ITERATIONS.
    ------------------------------------------------

 OUTPUT CONTROL FOR STRESS PERIOD    5   TIME STEP    6
    PRINT BUDGET
    SAVE BUDGET
 UBDSV1 SAVING "         STORAGE" ON UNIT 102 AT TIME STEP  6, STRESS PERIOD   5
 UBDSV2 SAVING "   CONSTANT HEAD" ON UNIT 102 AT TIME STEP  6, STRESS PERIOD   5
 UBDSV1 SAVING "FLOW RIGHT FACE " ON UNIT 102 AT TIME STEP  6, STRESS PERIOD   5
 UBDSV1 SAVING "FLOW FRONT FACE " ON UNIT 102 AT TIME STEP  6, STRESS PERIOD   5

  HEAD DEP BOUNDS   PERIOD    5   STEP     6
 BOUNDARY      1   LAYER   1   ROW    13   COL     1   RATE   -0.295946    
 BOUNDARY      2   LAYER   1   ROW    14   COL     9   RATE    0.285474    



 STREAM LISTING     PERIOD      5   STEP        6

 LAYER ROW COL. STREAM  RCH.  FLOW INTO     FLOW TO   FLOW OUT OF   OVRLND.     DIRECT     STREAM       STREAM     STREAM     STREAM   STREAMBED  STREAMBED
                SEG.NO.  NO.  STRM. RCH.    AQUIFER    STRM. RCH.    RUNOFF     PRECIP       ET          HEAD       DEPTH      WIDTH   CONDCTNC.   GRADIENT

   1    1    1     1     1    2.8000E+01  2.5860E-01   2.7742E+01  0.000E+00  0.000E+00  0.000E+00  1.09427E+03  1.221E+00  1.361E+01  6.126E-02  1.407E+00
   1    2    2     1     2    2.7742E+01  4.0002E-01   2.7341E+01  0.000E+00  0.000E+00  0.000E+00  1.08928E+03  1.217E+00  1.355E+01  9.487E-02  1.406E+00
   1    3    3     1     3    2.7341E+01  3.4070E-01   2.7001E+01  0.000E+00  0.000E+00  0.000E+00  1.08363E+03  1.212E+00  1.348E+01  8.090E-02  1.404E+00
   1    3    4     1     4    2.7001E+01  3.1335E-01   2.6687E+01  0.000E+00  0.000E+00  0.000E+00  1.07861E+03  1.207E+00  1.342E+01  7.448E-02  1.402E+00
   1    4    5     2     1    2.4687E+01  3.2711E-01   2.4360E+01  0.000E+00  0.000E+00  0.000E+00  1.07313E+03  1.194E+00  1.200E+01  7.800E-02  1.398E+00
   1    5    6     2     2    2.4360E+01  2.5111E-01   2.4109E+01  0.000E+00  0.000E+00  0.000E+00  1.06769E+03  1.185E+00  1.200E+01  6.000E-02  1.395E+00
   1    6    6     2     3    2.4109E+01  2.5067E-01   2.3859E+01  0.000E+00  0.000E+00  0.000E+00  1.06297E+03  1.178E+00  1.200E+01  6.000E-02  1.393E+00
   1    7    6     2     4    2.3859E+01  2.5023E-01   2.3608E+01  0.000E+00  0.000E+00  0.000E+00  1.05825E+03  1.170E+00  1.200E+01  6.000E-02  1.390E+00
   1    8    6     2     5    2.3608E+01  2.4978E-01   2.3359E+01  0.000E+00  0.000E+00  0.000E+00  1.05352E+03  1.163E+00  1.200E+01  6.000E-02  1.388E+00
   1    3    5     3     1    2.0000E+00  2.8252E-01   1.7175E+00  0.000E+00  0.000E+00  0.000E+00  1.07555E+03  1.909E+00  9.636E+00  7.227E-02  1.955E+00
   1    3    6     3     2    1.7175E+00  2.4905E-01   1.4684E+00  0.000E+00  0.000E+00  0.000E+00  1.07264E+03  1.727E+00  8.909E+00  6.682E-02  1.864E+00
   1    3    7     3     3    1.4684E+00  1.9718E-01   1.2712E+00  0.000E+00  0.000E+00  0.000E+00  1.06987E+03  1.555E+00  8.218E+00  5.547E-02  1.777E+00
   1    4    8     3     4    1.2712E+00  2.2567E-01   1.0456E+00  0.000E+00  0.000E+00  0.000E+00  1.06682E+03  1.364E+00  7.455E+00  6.709E-02  1.682E+00
   1    5    8     3     5    1.0456E+00  1.5790E-01   8.8768E-01  0.000E+00  0.000E+00  0.000E+00  1.06362E+03  1.164E+00  6.655E+00  4.991E-02  1.582E+00
   1    6    8     3     6    8.8768E-01  5.5980E-02   8.3170E-01  0.000E+00  0.000E+00  0.000E+00  1.06158E+03  1.036E+00  6.145E+00  1.844E-02  1.518E+00
   1    5   10     4     1    1.0000E+01  9.0919E-02   9.9091E+00  0.000E+00  0.000E+00  0.000E+00  1.07836E+03  6.368E-01  1.000E+01  2.500E-02  1.212E+00
   1    5    9     4     2    9.9091E+00  1.8158E-01   9.7275E+00  0.000E+00  0.000E+00  0.000E+00  1.07154E+03  6.315E-01  1.000E+01  5.000E-02  1.211E+00
   1    6    8     4     3    9.7275E+00  1.2689E-01   9.6006E+00  0.000E+00  0.000E+00  0.000E+00  1.06381E+03  6.256E-01  1.000E+01  3.500E-02  1.209E+00
   1    6    8     5     1    1.0432E+01  2.2686E-01   1.0205E+01  0.000E+00  0.000E+00  0.000E+00  1.05868E+03  6.790E-01  1.542E+01  6.166E-02  1.226E+00
   1    7    7     5     2    1.0205E+01  2.7894E-01   9.9265E+00  0.000E+00  0.000E+00  0.000E+00  1.05417E+03  6.732E-01  1.519E+01  7.594E-02  1.224E+00
   1    8    7     5     3    9.9265E+00  1.9221E-01   9.7343E+00  0.000E+00  0.000E+00  0.000E+00  1.04992E+03  6.676E-01  1.497E+01  5.241E-02  1.223E+00
   1    8    6     5     4    9.7343E+00  1.3577E-01   9.5985E+00  0.000E+00  0.000E+00  0.000E+00  1.04691E+03  6.637E-01  1.482E+01  3.706E-02  1.221E+00
   1    9    6     6     1    3.2957E+01  2.6627E-01   3.2691E+01  0.000E+00  0.000E+00  0.000E+00  1.04417E+03  1.438E+00  1.200E+01  6.000E-02  1.479E+00
   1   10    7     6     2    3.2691E+01  2.6585E-01   3.2425E+01  0.000E+00  0.000E+00  0.000E+00  1.03961E+03  1.431E+00  1.200E+01  6.000E-02  1.477E+00
   1   11    7     6     3    3.2425E+01  2.6542E-01   3.2160E+01  0.000E+00  0.000E+00  0.000E+00  1.03506E+03  1.424E+00  1.200E+01  6.000E-02  1.475E+00
   1   12    7     6     4    3.2160E+01  2.6500E-01   3.1895E+01  0.000E+00  0.000E+00  0.000E+00  1.03051E+03  1.417E+00  1.200E+01  6.000E-02  1.472E+00
   1   13    7     6     5    3.1895E+01  3.4595E-03   3.1891E+01  0.000E+00  0.000E+00  0.000E+00  1.02732E+03  1.413E+00  1.200E+01  2.400E-02  4.805E-02
   1   14    9     7     1    1.5000E+02  1.3316E+00   1.4867E+02  0.000E+00  0.000E+00  0.000E+00  1.03987E+03  2.288E+00  5.529E+01  5.593E-01  7.936E-01
   1   13    8     7     2    1.4867E+02  1.8139E+00   1.4685E+02  0.000E+00  0.000E+00  0.000E+00  1.03478E+03  2.279E+00  5.526E+01  6.148E-01  9.835E-01
   1   13    7     7     3    1.4685E+02  1.4029E+00   1.4545E+02  0.000E+00  0.000E+00  0.000E+00  1.02969E+03  2.271E+00  5.522E+01  5.585E-01  8.373E-01
   1   13    6     8     1    1.7734E+02  8.5870E-01   1.7648E+02  0.000E+00  0.000E+00  0.000E+00  1.02487E+03  2.997E+00  4.345E+01  4.428E-01  6.464E-01
   1   13    5     8     2    1.7648E+02  9.3239E-02   1.7639E+02  0.000E+00  0.000E+00  0.000E+00  1.01862E+03  2.994E+00  4.341E+01  4.423E-01  7.026E-02
   1   13    4     8     3    1.7639E+02 -3.0829E+00   1.7947E+02  0.000E+00  0.000E+00  0.000E+00  1.01238E+03  3.003E+00  4.355E+01  4.437E+00 -2.316E-01
   1   13    3     8     4    1.7947E+02 -4.1963E+00   1.8367E+02  0.000E+00  0.000E+00  0.000E+00  1.00615E+03  3.026E+00  4.388E+01  4.471E+00 -3.128E-01
   1   13    2     8     5    1.8367E+02 -3.1148E+00   1.8678E+02  0.000E+00  0.000E+00  0.000E+00  9.99924E+02  3.049E+00  4.421E+01  4.505E+00 -2.305E-01
   1   13    1     8     6    1.8678E+02 -2.3037E+00   1.8909E+02  0.000E+00  0.000E+00  0.000E+00  9.94940E+02  3.065E+00  4.445E+01  2.718E+00 -2.826E-01



 UBDSV3 SAVING "           GW ET" ON UNIT  61 AT TIME STEP  6, STRESS PERIOD   5
 UBDSV3 SAVING "    UZF RECHARGE" ON UNIT  61 AT TIME STEP  6, STRESS PERIOD   5
 UBDSV3 SAVING " SURFACE LEAKAGE" ON UNIT  61 AT TIME STEP  6, STRESS PERIOD   5
 UBDSV3 SAVING "       HORT+DUNN" ON UNIT  61 AT TIME STEP  6, STRESS PERIOD   5
 UBDSV3 SAVING "  STORAGE CHANGE" ON UNIT  61 AT TIME STEP  6, STRESS PERIOD   5


UNSATURATED ZONE PACKAGE VOLUMETRIC BUDGET FOR  TIME STEP     6 STRESS PERIOD    5
  ------------------------------------------------------------------------------



     CUMULATIVE VOLUMES      L**3       RATES FOR THIS TIME STEP      L**3/T
     ------------------                 ------------------------

           IN:                                      IN:
           ---                                      ---
        INFILTRATION =    37909308.0266          INFILTRATION =           7.3711

          OUT:                                     OUT:
          ----                                     ----
              UZF ET =    19530198.2781                UZF ET =          16.1683
        UZF RECHARGE =      388446.0629          UZF RECHARGE =       0.0000E+00

            IN - OUT =    17990663.6857              IN - OUT =          -8.7972

          STORAGE:                                 STORAGE:
          --------                                 --------
      STORAGE CHANGE =    17991235.9267        STORAGE CHANGE =          -8.7972

 PERCENT DISCREPANCY IS DIFFERENCE BETWEEN IN-OUT MINUS CHANGE IN STORAGE
 DIVIDED BY THE AVERAGE OF IN AND OUT TIMES 100

 PERCENT DISCREPANCY =          -0.00     PERCENT DISCREPANCY =           0.00






 

            AG WELLS      PERIOD    5   STEP   6
 AG WELL      1   LAYER   1   ROW     6   COL     4   RATE   -0.597352    
 AG WELL      2   LAYER   1   ROW     6   COL     5   RATE   -0.587282    
 AG WELL      3   LAYER   1   ROW     7   COL     4   RATE   -0.595000    
 AG WELL      4   LAYER   1   ROW     7   COL     5   RATE   -0.575000    
 AG WELL      5   LAYER   1   ROW     8   COL     4   RATE   -0.595000    
 AG WELL      6   LAYER   1   ROW     8   COL     5   RATE   -1.394293E-02
 
 

        GW IRRIGATION     PERIOD    5   STEP   6
 AG WELL      1   ROW     6   COL     4   RATE    0.597352    
 AG WELL      2   ROW     6   COL     5   RATE    0.587282    
 AG WELL      3   ROW     7   COL     4   RATE    0.595000    
 AG WELL      4   ROW     7   COL     5   RATE    0.575000    
 AG WELL      5   ROW     8   COL     4   RATE    0.595000    
 AG WELL      6   ROW     8   COL     5   RATE    1.394293E-02
 
1
  VOLUMETRIC BUDGET FOR AGRICULTURAL FIELDS AT TIME STEP    6, STRESS PERIOD   5
  ------------------------------------------------------------------------------

     CUMULATIVE VOLUMES      L**3       RATES FOR THIS TIME STEP      L**3/T
     ------------------                 ------------------------

           IN:                                      IN:
           ---                                      ---
               AG WELLS  =      742565.4375                 AG WELLS  =           2.9636
      DIVERSION SEGMENTS =           0.0000        DIVERSION SEGMENTS =           0.0000
           GW IRRIGATION =           0.0000             GW IRRIGATION =           0.0000
           SW IRRIGATION =           0.0000             SW IRRIGATION =           0.0000
        SYSTEM LOSSES GW =           0.0000          SYSTEM LOSSES GW =           0.0000
        SYSTEM LOSSES SW =           0.0000          SYSTEM LOSSES SW =           0.0000

                TOTAL IN =      742565.4375                  TOTAL IN =           2.9636

          OUT:                                     OUT:
          ----                                     ----
               AG WELLS  =           0.0000                 AG WELLS  =           0.0000
      DIVERSION SEGMENTS =           0.0000        DIVERSION SEGMENTS =           0.0000
           GW IRRIGATION =      742565.4375             GW IRRIGATION =           2.9636
           SW IRRIGATION =           0.0000             SW IRRIGATION =           0.0000
        SYSTEM LOSSES GW =           0.0000          SYSTEM LOSSES GW =           0.0000
        SYSTEM LOSSES SW =           0.0000          SYSTEM LOSSES SW =           0.0000

               TOTAL OUT =      742565.4375                 TOTAL OUT =           2.9636

                IN - OUT =           0.0000                  IN - OUT =           0.0000

     PERCENT DISCREPANCY =           0.00         PERCENT DISCREPANCY =           0.00



1
  VOLUMETRIC BUDGET FOR ENTIRE MODEL AT END OF TIME STEP    6, STRESS PERIOD   5
  ------------------------------------------------------------------------------

     CUMULATIVE VOLUMES      L**3       RATES FOR THIS TIME STEP      L**3/T
     ------------------                 ------------------------

           IN:                                      IN:
           ---                                      ---
             STORAGE     =     6629886.0000               STORAGE     =           5.5559
       CONSTANT HEAD     =           0.0000         CONSTANT HEAD     =           0.0000
     HEAD DEP BOUNDS     =     2426780.0000       HEAD DEP BOUNDS     =           0.2855
      STREAM LEAKAGE     =   105078624.0000        STREAM LEAKAGE     =          11.6094
        UZF RECHARGE     =      388445.9375          UZF RECHARGE     =           0.0000
               GW ET     =           0.0000                 GW ET     =           0.0000
     SURFACE LEAKAGE     =           0.0000       SURFACE LEAKAGE     =           0.0000
           AG WELLS      =           0.0000             AG WELLS      =           0.0000

                TOTAL IN =   114523736.0000                  TOTAL IN =          17.4508

          OUT:                                     OUT:
          ----                                     ----
             STORAGE     =    23275660.0000               STORAGE     =           1.3080
       CONSTANT HEAD     =           0.0000         CONSTANT HEAD     =           0.0000
     HEAD DEP BOUNDS     =     2483707.2500       HEAD DEP BOUNDS     =           0.2959
      STREAM LEAKAGE     =    87978296.0000        STREAM LEAKAGE     =          12.6977
        UZF RECHARGE     =           0.0000          UZF RECHARGE     =           0.0000
               GW ET     =       48050.5078                 GW ET     =           0.1855
     SURFACE LEAKAGE     =           0.0000       SURFACE LEAKAGE     =           0.0000
           AG WELLS      =      742565.4375             AG WELLS      =           2.9636

               TOTAL OUT =   114528280.0000                 TOTAL OUT =          17.4507

                IN - OUT =       -4544.0000                  IN - OUT =       9.5367E-05

     PERCENT DISCREPANCY =          -0.00         PERCENT DISCREPANCY =           0.00






         TIME SUMMARY AT END OF TIME STEP    6 IN STRESS PERIOD    5
                    SECONDS     MINUTES      HOURS       DAYS        YEARS
                    -----------------------------------------------------------
   TIME STEP LENGTH  87667.      1461.1      24.352      1.0147     2.77799E-03
 STRESS PERIOD TIME 5.26000E+05  8766.7      146.11      6.0880     1.66679E-02
         TOTAL TIME 8.50239E+06 1.41707E+05  2361.8      98.407     0.26942    
1
 
 SOLVING FOR HEAD 
                                                   Max.-Head-Change                         Max.-Flux-Residual
  Residual-Control   Outer-Iter.   Inner-Iter.     Column Row Layer    Maximum-Head-Change  Column Row Layer    Maximum-Flux-Residual          L2-NORM 
          0                 1           2             5    7     1      -0.1051803948E-01       3   13    1        -0.5977602174E+00      0.1608071298E+01
          0                 2           2             5    8     1      -0.4236407970E-02       5    8    1        -0.2351489954E+00      0.2753540848E+00
          0                 3           1             5    8     1       0.4120859591E-03       5    8    1         0.2348375919E-01      0.2582813573E-01
          0                 4           1             5    8     1      -0.2806153851E-04       5    8    1        -0.1641754747E-02      0.1730630901E-02

    ------------------------------------------------
       NWT REQUIRED            4 OUTER ITERATIONS 
       AND A TOTAL OF          6 INNER ITERATIONS.
    ------------------------------------------------

 OUTPUT CONTROL FOR STRESS PERIOD    5   TIME STEP    7
    PRINT BUDGET
    SAVE BUDGET
 UBDSV1 SAVING "         STORAGE" ON UNIT 102 AT TIME STEP  7, STRESS PERIOD   5
 UBDSV2 SAVING "   CONSTANT HEAD" ON UNIT 102 AT TIME STEP  7, STRESS PERIOD   5
 UBDSV1 SAVING "FLOW RIGHT FACE " ON UNIT 102 AT TIME STEP  7, STRESS PERIOD   5
 UBDSV1 SAVING "FLOW FRONT FACE " ON UNIT 102 AT TIME STEP  7, STRESS PERIOD   5

  HEAD DEP BOUNDS   PERIOD    5   STEP     7
 BOUNDARY      1   LAYER   1   ROW    13   COL     1   RATE   -0.295728    
 BOUNDARY      2   LAYER   1   ROW    14   COL     9   RATE    0.285475    



 STREAM LISTING     PERIOD      5   STEP        7

 LAYER ROW COL. STREAM  RCH.  FLOW INTO     FLOW TO   FLOW OUT OF   OVRLND.     DIRECT     STREAM       STREAM     STREAM     STREAM   STREAMBED  STREAMBED
                SEG.NO.  NO.  STRM. RCH.    AQUIFER    STRM. RCH.    RUNOFF     PRECIP       ET          HEAD       DEPTH      WIDTH   CONDCTNC.   GRADIENT

   1    1    1     1     1    2.8000E+01  2.5860E-01   2.7742E+01  0.000E+00  0.000E+00  0.000E+00  1.09427E+03  1.221E+00  1.361E+01  6.126E-02  1.407E+00
   1    2    2     1     2    2.7742E+01  4.0002E-01   2.7341E+01  0.000E+00  0.000E+00  0.000E+00  1.08928E+03  1.217E+00  1.355E+01  9.487E-02  1.406E+00
   1    3    3     1     3    2.7341E+01  3.4070E-01   2.7001E+01  0.000E+00  0.000E+00  0.000E+00  1.08363E+03  1.212E+00  1.348E+01  8.090E-02  1.404E+00
   1    3    4     1     4    2.7001E+01  3.1335E-01   2.6687E+01  0.000E+00  0.000E+00  0.000E+00  1.07861E+03  1.207E+00  1.342E+01  7.448E-02  1.402E+00
   1    4    5     2     1    2.4687E+01  3.2711E-01   2.4360E+01  0.000E+00  0.000E+00  0.000E+00  1.07313E+03  1.194E+00  1.200E+01  7.800E-02  1.398E+00
   1    5    6     2     2    2.4360E+01  2.5111E-01   2.4109E+01  0.000E+00  0.000E+00  0.000E+00  1.06769E+03  1.185E+00  1.200E+01  6.000E-02  1.395E+00
   1    6    6     2     3    2.4109E+01  2.5067E-01   2.3859E+01  0.000E+00  0.000E+00  0.000E+00  1.06297E+03  1.178E+00  1.200E+01  6.000E-02  1.393E+00
   1    7    6     2     4    2.3859E+01  2.5023E-01   2.3608E+01  0.000E+00  0.000E+00  0.000E+00  1.05825E+03  1.170E+00  1.200E+01  6.000E-02  1.390E+00
   1    8    6     2     5    2.3608E+01  2.4978E-01   2.3359E+01  0.000E+00  0.000E+00  0.000E+00  1.05352E+03  1.163E+00  1.200E+01  6.000E-02  1.388E+00
   1    3    5     3     1    2.0000E+00  2.8252E-01   1.7175E+00  0.000E+00  0.000E+00  0.000E+00  1.07555E+03  1.909E+00  9.636E+00  7.227E-02  1.955E+00
   1    3    6     3     2    1.7175E+00  2.4905E-01   1.4684E+00  0.000E+00  0.000E+00  0.000E+00  1.07264E+03  1.727E+00  8.909E+00  6.682E-02  1.864E+00
   1    3    7     3     3    1.4684E+00  1.9718E-01   1.2712E+00  0.000E+00  0.000E+00  0.000E+00  1.06987E+03  1.555E+00  8.218E+00  5.547E-02  1.777E+00
   1    4    8     3     4    1.2712E+00  2.2567E-01   1.0456E+00  0.000E+00  0.000E+00  0.000E+00  1.06682E+03  1.364E+00  7.455E+00  6.709E-02  1.682E+00
   1    5    8     3     5    1.0456E+00  1.5790E-01   8.8768E-01  0.000E+00  0.000E+00  0.000E+00  1.06362E+03  1.164E+00  6.655E+00  4.991E-02  1.582E+00
   1    6    8     3     6    8.8768E-01  5.5980E-02   8.3170E-01  0.000E+00  0.000E+00  0.000E+00  1.06158E+03  1.036E+00  6.145E+00  1.844E-02  1.518E+00
   1    5   10     4     1    1.0000E+01  9.0919E-02   9.9091E+00  0.000E+00  0.000E+00  0.000E+00  1.07836E+03  6.368E-01  1.000E+01  2.500E-02  1.212E+00
   1    5    9     4     2    9.9091E+00  1.8158E-01   9.7275E+00  0.000E+00  0.000E+00  0.000E+00  1.07154E+03  6.315E-01  1.000E+01  5.000E-02  1.211E+00
   1    6    8     4     3    9.7275E+00  1.2689E-01   9.6006E+00  0.000E+00  0.000E+00  0.000E+00  1.06381E+03  6.256E-01  1.000E+01  3.500E-02  1.209E+00
   1    6    8     5     1    1.0432E+01  2.2686E-01   1.0205E+01  0.000E+00  0.000E+00  0.000E+00  1.05868E+03  6.790E-01  1.542E+01  6.166E-02  1.226E+00
   1    7    7     5     2    1.0205E+01  2.7894E-01   9.9265E+00  0.000E+00  0.000E+00  0.000E+00  1.05417E+03  6.732E-01  1.519E+01  7.594E-02  1.224E+00
   1    8    7     5     3    9.9265E+00  1.9221E-01   9.7343E+00  0.000E+00  0.000E+00  0.000E+00  1.04992E+03  6.676E-01  1.497E+01  5.241E-02  1.223E+00
   1    8    6     5     4    9.7343E+00  1.3577E-01   9.5985E+00  0.000E+00  0.000E+00  0.000E+00  1.04691E+03  6.637E-01  1.482E+01  3.706E-02  1.221E+00
   1    9    6     6     1    3.2957E+01  2.6627E-01   3.2691E+01  0.000E+00  0.000E+00  0.000E+00  1.04417E+03  1.438E+00  1.200E+01  6.000E-02  1.479E+00
   1   10    7     6     2    3.2691E+01  2.6585E-01   3.2425E+01  0.000E+00  0.000E+00  0.000E+00  1.03961E+03  1.431E+00  1.200E+01  6.000E-02  1.477E+00
   1   11    7     6     3    3.2425E+01  2.6542E-01   3.2160E+01  0.000E+00  0.000E+00  0.000E+00  1.03506E+03  1.424E+00  1.200E+01  6.000E-02  1.475E+00
   1   12    7     6     4    3.2160E+01  2.6500E-01   3.1895E+01  0.000E+00  0.000E+00  0.000E+00  1.03051E+03  1.417E+00  1.200E+01  6.000E-02  1.472E+00
   1   13    7     6     5    3.1895E+01  3.4511E-03   3.1891E+01  0.000E+00  0.000E+00  0.000E+00  1.02732E+03  1.413E+00  1.200E+01  2.400E-02  4.793E-02
   1   14    9     7     1    1.5000E+02  1.3316E+00   1.4867E+02  0.000E+00  0.000E+00  0.000E+00  1.03987E+03  2.288E+00  5.529E+01  5.593E-01  7.936E-01
   1   13    8     7     2    1.4867E+02  1.8137E+00   1.4685E+02  0.000E+00  0.000E+00  0.000E+00  1.03478E+03  2.279E+00  5.526E+01  6.148E-01  9.834E-01
   1   13    7     7     3    1.4685E+02  1.4027E+00   1.4545E+02  0.000E+00  0.000E+00  0.000E+00  1.02969E+03  2.271E+00  5.522E+01  5.585E-01  8.372E-01
   1   13    6     8     1    1.7734E+02  8.5930E-01   1.7648E+02  0.000E+00  0.000E+00  0.000E+00  1.02487E+03  2.997E+00  4.345E+01  4.428E-01  6.469E-01
   1   13    5     8     2    1.7648E+02  9.3811E-02   1.7639E+02  0.000E+00  0.000E+00  0.000E+00  1.01862E+03  2.994E+00  4.341E+01  4.423E-01  7.069E-02
   1   13    4     8     3    1.7639E+02 -3.0421E+00   1.7943E+02  0.000E+00  0.000E+00  0.000E+00  1.01238E+03  3.003E+00  4.354E+01  4.437E+00 -2.285E-01
   1   13    3     8     4    1.7943E+02 -4.1554E+00   1.8359E+02  0.000E+00  0.000E+00  0.000E+00  1.00615E+03  3.026E+00  4.387E+01  4.471E+00 -3.098E-01
   1   13    2     8     5    1.8359E+02 -3.0765E+00   1.8666E+02  0.000E+00  0.000E+00  0.000E+00  9.99923E+02  3.048E+00  4.420E+01  4.504E+00 -2.277E-01
   1   13    1     8     6    1.8666E+02 -2.2896E+00   1.8895E+02  0.000E+00  0.000E+00  0.000E+00  9.94940E+02  3.065E+00  4.444E+01  2.717E+00 -2.809E-01



 UBDSV3 SAVING "           GW ET" ON UNIT  61 AT TIME STEP  7, STRESS PERIOD   5
 UBDSV3 SAVING "    UZF RECHARGE" ON UNIT  61 AT TIME STEP  7, STRESS PERIOD   5
 UBDSV3 SAVING " SURFACE LEAKAGE" ON UNIT  61 AT TIME STEP  7, STRESS PERIOD   5
 UBDSV3 SAVING "       HORT+DUNN" ON UNIT  61 AT TIME STEP  7, STRESS PERIOD   5
 UBDSV3 SAVING "  STORAGE CHANGE" ON UNIT  61 AT TIME STEP  7, STRESS PERIOD   5


UNSATURATED ZONE PACKAGE VOLUMETRIC BUDGET FOR  TIME STEP     7 STRESS PERIOD    5
  ------------------------------------------------------------------------------



     CUMULATIVE VOLUMES      L**3       RATES FOR THIS TIME STEP      L**3/T
     ------------------                 ------------------------

           IN:                                      IN:
           ---                                      ---
        INFILTRATION =    38596626.2249          INFILTRATION =           7.8401

          OUT:                                     OUT:
          ----                                     ----
              UZF ET =    20771723.4236                UZF ET =          14.1619
        UZF RECHARGE =      388446.0629          UZF RECHARGE =       0.0000E+00

            IN - OUT =    17436456.7384              IN - OUT =          -6.3218

          STORAGE:                                 STORAGE:
          --------                                 --------
      STORAGE CHANGE =    17437028.9784        STORAGE CHANGE =          -6.3218

 PERCENT DISCREPANCY IS DIFFERENCE BETWEEN IN-OUT MINUS CHANGE IN STORAGE
 DIVIDED BY THE AVERAGE OF IN AND OUT TIMES 100

 PERCENT DISCREPANCY =          -0.00     PERCENT DISCREPANCY =           0.00






 

            AG WELLS      PERIOD    5   STEP   7
 AG WELL      1   LAYER   1   ROW     6   COL     4   RATE   -0.597485    
 AG WELL      2   LAYER   1   ROW     6   COL     5   RATE   -0.587500    
 AG WELL      3   LAYER   1   ROW     7   COL     4   RATE   -0.595000    
 AG WELL      4   LAYER   1   ROW     7   COL     5   RATE   -0.574909    
 AG WELL      5   LAYER   1   ROW     8   COL     4   RATE   -0.595000    
 AG WELL      6   LAYER   1   ROW     8   COL     5   RATE   -0.482738    
 
 

        GW IRRIGATION     PERIOD    5   STEP   7
 AG WELL      1   ROW     6   COL     4   RATE    0.597485    
 AG WELL      2   ROW     6   COL     5   RATE    0.587500    
 AG WELL      3   ROW     7   COL     4   RATE    0.595000    
 AG WELL      4   ROW     7   COL     5   RATE    0.574909    
 AG WELL      5   ROW     8   COL     4   RATE    0.595000    
 AG WELL      6   ROW     8   COL     5   RATE    0.482738    
 
1
  VOLUMETRIC BUDGET FOR AGRICULTURAL FIELDS AT TIME STEP    7, STRESS PERIOD   5
  ------------------------------------------------------------------------------

     CUMULATIVE VOLUMES      L**3       RATES FOR THIS TIME STEP      L**3/T
     ------------------                 ------------------------

           IN:                                      IN:
           ---                                      ---
               AG WELLS  =     1043492.8125                 AG WELLS  =           3.4326
      DIVERSION SEGMENTS =           0.0000        DIVERSION SEGMENTS =           0.0000
           GW IRRIGATION =           0.0000             GW IRRIGATION =           0.0000
           SW IRRIGATION =           0.0000             SW IRRIGATION =           0.0000
        SYSTEM LOSSES GW =           0.0000          SYSTEM LOSSES GW =           0.0000
        SYSTEM LOSSES SW =           0.0000          SYSTEM LOSSES SW =           0.0000

                TOTAL IN =     1043492.8125                  TOTAL IN =           3.4326

          OUT:                                     OUT:
          ----                                     ----
               AG WELLS  =           0.0000                 AG WELLS  =           0.0000
      DIVERSION SEGMENTS =           0.0000        DIVERSION SEGMENTS =           0.0000
           GW IRRIGATION =     1043492.8125             GW IRRIGATION =           3.4326
           SW IRRIGATION =           0.0000             SW IRRIGATION =           0.0000
        SYSTEM LOSSES GW =           0.0000          SYSTEM LOSSES GW =           0.0000
        SYSTEM LOSSES SW =           0.0000          SYSTEM LOSSES SW =           0.0000

               TOTAL OUT =     1043492.8125                 TOTAL OUT =           3.4326

                IN - OUT =           0.0000                  IN - OUT =           0.0000

     PERCENT DISCREPANCY =           0.00         PERCENT DISCREPANCY =           0.00



1
  VOLUMETRIC BUDGET FOR ENTIRE MODEL AT END OF TIME STEP    7, STRESS PERIOD   5
  ------------------------------------------------------------------------------

     CUMULATIVE VOLUMES      L**3       RATES FOR THIS TIME STEP      L**3/T
     ------------------                 ------------------------

           IN:                                      IN:
           ---                                      ---
             STORAGE     =     7139541.5000               STORAGE     =           5.8136
       CONSTANT HEAD     =           0.0000         CONSTANT HEAD     =           0.0000
     HEAD DEP BOUNDS     =     2451806.7500       HEAD DEP BOUNDS     =           0.2855
      STREAM LEAKAGE     =   106096456.0000        STREAM LEAKAGE     =          11.6102
        UZF RECHARGE     =      388445.9375          UZF RECHARGE     =           0.0000
               GW ET     =           0.0000                 GW ET     =           0.0000
     SURFACE LEAKAGE     =           0.0000       SURFACE LEAKAGE     =           0.0000
           AG WELLS      =           0.0000             AG WELLS      =           0.0000

                TOTAL IN =   116076256.0000                  TOTAL IN =          17.7092

          OUT:                                     OUT:
          ----                                     ----
             STORAGE     =    23385514.0000               STORAGE     =           1.2531
       CONSTANT HEAD     =           0.0000         CONSTANT HEAD     =           0.0000
     HEAD DEP BOUNDS     =     2509632.7500       HEAD DEP BOUNDS     =           0.2957
      STREAM LEAKAGE     =    89079704.0000        STREAM LEAKAGE     =          12.5636
        UZF RECHARGE     =           0.0000          UZF RECHARGE     =           0.0000
               GW ET     =       62437.6562                 GW ET     =           0.1641
     SURFACE LEAKAGE     =           0.0000       SURFACE LEAKAGE     =           0.0000
           AG WELLS      =     1043492.8125             AG WELLS      =           3.4326

               TOTAL OUT =   116080784.0000                 TOTAL OUT =          17.7092

                IN - OUT =       -4528.0000                  IN - OUT =       7.4387E-05

     PERCENT DISCREPANCY =          -0.00         PERCENT DISCREPANCY =           0.00






         TIME SUMMARY AT END OF TIME STEP    7 IN STRESS PERIOD    5
                    SECONDS     MINUTES      HOURS       DAYS        YEARS
                    -----------------------------------------------------------
   TIME STEP LENGTH  87667.      1461.1      24.352      1.0147     2.77799E-03
 STRESS PERIOD TIME 6.13667E+05  10228.      170.46      7.1026     1.94459E-02
         TOTAL TIME 8.59006E+06 1.43168E+05  2386.1      99.422     0.27220    
1
 
 SOLVING FOR HEAD 
                                                   Max.-Head-Change                         Max.-Flux-Residual
  Residual-Control   Outer-Iter.   Inner-Iter.     Column Row Layer    Maximum-Head-Change  Column Row Layer    Maximum-Flux-Residual          L2-NORM 
          0                 1           2             5    7     1      -0.1035163392E-01       5    7    1        -0.5512499222E+00      0.1532363297E+01
          0                 2           2             5    8     1      -0.4056060886E-02       5    8    1        -0.2251845726E+00      0.2631372324E+00
          0                 3           1             5    8     1       0.3945431915E-03       5    8    1         0.2248596583E-01      0.2475043983E-01
          0                 4           1             5    8     1      -0.2686694011E-04       5    8    1        -0.1571816940E-02      0.1661434973E-02

    ------------------------------------------------
       NWT REQUIRED            4 OUTER ITERATIONS 
       AND A TOTAL OF          6 INNER ITERATIONS.
    ------------------------------------------------

 OUTPUT CONTROL FOR STRESS PERIOD    5   TIME STEP    8
    PRINT BUDGET
    SAVE BUDGET
 UBDSV1 SAVING "         STORAGE" ON UNIT 102 AT TIME STEP  8, STRESS PERIOD   5
 UBDSV2 SAVING "   CONSTANT HEAD" ON UNIT 102 AT TIME STEP  8, STRESS PERIOD   5
 UBDSV1 SAVING "FLOW RIGHT FACE " ON UNIT 102 AT TIME STEP  8, STRESS PERIOD   5
 UBDSV1 SAVING "FLOW FRONT FACE " ON UNIT 102 AT TIME STEP  8, STRESS PERIOD   5

  HEAD DEP BOUNDS   PERIOD    5   STEP     8
 BOUNDARY      1   LAYER   1   ROW    13   COL     1   RATE   -0.295519    
 BOUNDARY      2   LAYER   1   ROW    14   COL     9   RATE    0.285475    



 STREAM LISTING     PERIOD      5   STEP        8

 LAYER ROW COL. STREAM  RCH.  FLOW INTO     FLOW TO   FLOW OUT OF   OVRLND.     DIRECT     STREAM       STREAM     STREAM     STREAM   STREAMBED  STREAMBED
                SEG.NO.  NO.  STRM. RCH.    AQUIFER    STRM. RCH.    RUNOFF     PRECIP       ET          HEAD       DEPTH      WIDTH   CONDCTNC.   GRADIENT

   1    1    1     1     1    2.8000E+01  2.5860E-01   2.7742E+01  0.000E+00  0.000E+00  0.000E+00  1.09427E+03  1.221E+00  1.361E+01  6.126E-02  1.407E+00
   1    2    2     1     2    2.7742E+01  4.0002E-01   2.7341E+01  0.000E+00  0.000E+00  0.000E+00  1.08928E+03  1.217E+00  1.355E+01  9.487E-02  1.406E+00
   1    3    3     1     3    2.7341E+01  3.4070E-01   2.7001E+01  0.000E+00  0.000E+00  0.000E+00  1.08363E+03  1.212E+00  1.348E+01  8.090E-02  1.404E+00
   1    3    4     1     4    2.7001E+01  3.1335E-01   2.6687E+01  0.000E+00  0.000E+00  0.000E+00  1.07861E+03  1.207E+00  1.342E+01  7.448E-02  1.402E+00
   1    4    5     2     1    2.4687E+01  3.2711E-01   2.4360E+01  0.000E+00  0.000E+00  0.000E+00  1.07313E+03  1.194E+00  1.200E+01  7.800E-02  1.398E+00
   1    5    6     2     2    2.4360E+01  2.5111E-01   2.4109E+01  0.000E+00  0.000E+00  0.000E+00  1.06769E+03  1.185E+00  1.200E+01  6.000E-02  1.395E+00
   1    6    6     2     3    2.4109E+01  2.5067E-01   2.3859E+01  0.000E+00  0.000E+00  0.000E+00  1.06297E+03  1.178E+00  1.200E+01  6.000E-02  1.393E+00
   1    7    6     2     4    2.3859E+01  2.5023E-01   2.3608E+01  0.000E+00  0.000E+00  0.000E+00  1.05825E+03  1.170E+00  1.200E+01  6.000E-02  1.390E+00
   1    8    6     2     5    2.3608E+01  2.4978E-01   2.3359E+01  0.000E+00  0.000E+00  0.000E+00  1.05352E+03  1.163E+00  1.200E+01  6.000E-02  1.388E+00
   1    3    5     3     1    2.0000E+00  2.8252E-01   1.7175E+00  0.000E+00  0.000E+00  0.000E+00  1.07555E+03  1.909E+00  9.636E+00  7.227E-02  1.955E+00
   1    3    6     3     2    1.7175E+00  2.4905E-01   1.4684E+00  0.000E+00  0.000E+00  0.000E+00  1.07264E+03  1.727E+00  8.909E+00  6.682E-02  1.864E+00
   1    3    7     3     3    1.4684E+00  1.9718E-01   1.2712E+00  0.000E+00  0.000E+00  0.000E+00  1.06987E+03  1.555E+00  8.218E+00  5.547E-02  1.777E+00
   1    4    8     3     4    1.2712E+00  2.2567E-01   1.0456E+00  0.000E+00  0.000E+00  0.000E+00  1.06682E+03  1.364E+00  7.455E+00  6.709E-02  1.682E+00
   1    5    8     3     5    1.0456E+00  1.5790E-01   8.8768E-01  0.000E+00  0.000E+00  0.000E+00  1.06362E+03  1.164E+00  6.655E+00  4.991E-02  1.582E+00
   1    6    8     3     6    8.8768E-01  5.5980E-02   8.3170E-01  0.000E+00  0.000E+00  0.000E+00  1.06158E+03  1.036E+00  6.145E+00  1.844E-02  1.518E+00
   1    5   10     4     1    1.0000E+01  9.0919E-02   9.9091E+00  0.000E+00  0.000E+00  0.000E+00  1.07836E+03  6.368E-01  1.000E+01  2.500E-02  1.212E+00
   1    5    9     4     2    9.9091E+00  1.8158E-01   9.7275E+00  0.000E+00  0.000E+00  0.000E+00  1.07154E+03  6.315E-01  1.000E+01  5.000E-02  1.211E+00
   1    6    8     4     3    9.7275E+00  1.2689E-01   9.6006E+00  0.000E+00  0.000E+00  0.000E+00  1.06381E+03  6.256E-01  1.000E+01  3.500E-02  1.209E+00
   1    6    8     5     1    1.0432E+01  2.2686E-01   1.0205E+01  0.000E+00  0.000E+00  0.000E+00  1.05868E+03  6.790E-01  1.542E+01  6.166E-02  1.226E+00
   1    7    7     5     2    1.0205E+01  2.7894E-01   9.9265E+00  0.000E+00  0.000E+00  0.000E+00  1.05417E+03  6.732E-01  1.519E+01  7.594E-02  1.224E+00
   1    8    7     5     3    9.9265E+00  1.9221E-01   9.7343E+00  0.000E+00  0.000E+00  0.000E+00  1.04992E+03  6.676E-01  1.497E+01  5.241E-02  1.223E+00
   1    8    6     5     4    9.7343E+00  1.3577E-01   9.5985E+00  0.000E+00  0.000E+00  0.000E+00  1.04691E+03  6.637E-01  1.482E+01  3.706E-02  1.221E+00
   1    9    6     6     1    3.2957E+01  2.6627E-01   3.2691E+01  0.000E+00  0.000E+00  0.000E+00  1.04417E+03  1.438E+00  1.200E+01  6.000E-02  1.479E+00
   1   10    7     6     2    3.2691E+01  2.6585E-01   3.2425E+01  0.000E+00  0.000E+00  0.000E+00  1.03961E+03  1.431E+00  1.200E+01  6.000E-02  1.477E+00
   1   11    7     6     3    3.2425E+01  2.6542E-01   3.2160E+01  0.000E+00  0.000E+00  0.000E+00  1.03506E+03  1.424E+00  1.200E+01  6.000E-02  1.475E+00
   1   12    7     6     4    3.2160E+01  2.6500E-01   3.1895E+01  0.000E+00  0.000E+00  0.000E+00  1.03051E+03  1.417E+00  1.200E+01  6.000E-02  1.472E+00
   1   13    7     6     5    3.1895E+01  3.4432E-03   3.1891E+01  0.000E+00  0.000E+00  0.000E+00  1.02732E+03  1.413E+00  1.200E+01  2.400E-02  4.782E-02
   1   14    9     7     1    1.5000E+02  1.3317E+00   1.4867E+02  0.000E+00  0.000E+00  0.000E+00  1.03987E+03  2.288E+00  5.529E+01  5.593E-01  7.936E-01
   1   13    8     7     2    1.4867E+02  1.8136E+00   1.4685E+02  0.000E+00  0.000E+00  0.000E+00  1.03478E+03  2.279E+00  5.526E+01  6.148E-01  9.833E-01
   1   13    7     7     3    1.4685E+02  1.4025E+00   1.4545E+02  0.000E+00  0.000E+00  0.000E+00  1.02969E+03  2.271E+00  5.522E+01  5.585E-01  8.371E-01
   1   13    6     8     1    1.7734E+02  8.5986E-01   1.7648E+02  0.000E+00  0.000E+00  0.000E+00  1.02487E+03  2.997E+00  4.345E+01  4.428E-01  6.473E-01
   1   13    5     8     2    1.7648E+02  9.4401E-02   1.7639E+02  0.000E+00  0.000E+00  0.000E+00  1.01862E+03  2.994E+00  4.341E+01  4.423E-01  7.114E-02
   1   13    4     8     3    1.7639E+02 -3.0058E+00   1.7939E+02  0.000E+00  0.000E+00  0.000E+00  1.01238E+03  3.003E+00  4.354E+01  4.437E+00 -2.258E-01
   1   13    3     8     4    1.7939E+02 -4.1184E+00   1.8351E+02  0.000E+00  0.000E+00  0.000E+00  1.00615E+03  3.025E+00  4.387E+01  4.470E+00 -3.071E-01
   1   13    2     8     5    1.8351E+02 -3.0410E+00   1.8655E+02  0.000E+00  0.000E+00  0.000E+00  9.99923E+02  3.048E+00  4.419E+01  4.503E+00 -2.251E-01
   1   13    1     8     6    1.8655E+02 -2.2761E+00   1.8883E+02  0.000E+00  0.000E+00  0.000E+00  9.94939E+02  3.064E+00  4.443E+01  2.716E+00 -2.793E-01



 UBDSV3 SAVING "           GW ET" ON UNIT  61 AT TIME STEP  8, STRESS PERIOD   5
 UBDSV3 SAVING "    UZF RECHARGE" ON UNIT  61 AT TIME STEP  8, STRESS PERIOD   5
 UBDSV3 SAVING " SURFACE LEAKAGE" ON UNIT  61 AT TIME STEP  8, STRESS PERIOD   5
 UBDSV3 SAVING "       HORT+DUNN" ON UNIT  61 AT TIME STEP  8, STRESS PERIOD   5
 UBDSV3 SAVING "  STORAGE CHANGE" ON UNIT  61 AT TIME STEP  8, STRESS PERIOD   5


UNSATURATED ZONE PACKAGE VOLUMETRIC BUDGET FOR  TIME STEP     8 STRESS PERIOD    5
  ------------------------------------------------------------------------------



     CUMULATIVE VOLUMES      L**3       RATES FOR THIS TIME STEP      L**3/T
     ------------------                 ------------------------

           IN:                                      IN:
           ---                                      ---
        INFILTRATION =    39284619.7473          INFILTRATION =           7.8478

          OUT:                                     OUT:
          ----                                     ----
              UZF ET =    21674783.4656                UZF ET =          10.3011
        UZF RECHARGE =      388446.0629          UZF RECHARGE =       0.0000E+00

            IN - OUT =    17221390.2189              IN - OUT =          -2.4532

          STORAGE:                                 STORAGE:
          --------                                 --------
      STORAGE CHANGE =    17221962.4564        STORAGE CHANGE =          -2.4532

 PERCENT DISCREPANCY IS DIFFERENCE BETWEEN IN-OUT MINUS CHANGE IN STORAGE
 DIVIDED BY THE AVERAGE OF IN AND OUT TIMES 100

 PERCENT DISCREPANCY =          -0.00     PERCENT DISCREPANCY =           0.00






 

            AG WELLS      PERIOD    5   STEP   8
 AG WELL      1   LAYER   1   ROW     6   COL     4   RATE   -0.597485    
 AG WELL      2   LAYER   1   ROW     6   COL     5   RATE   -0.587500    
 AG WELL      3   LAYER   1   ROW     7   COL     4   RATE   -0.595000    
 AG WELL      4   LAYER   1   ROW     7   COL     5   RATE   -0.574922    
 AG WELL      5   LAYER   1   ROW     8   COL     4   RATE   -0.595000    
 AG WELL      6   LAYER   1   ROW     8   COL     5   RATE   -0.490428    
 
 

        GW IRRIGATION     PERIOD    5   STEP   8
 AG WELL      1   ROW     6   COL     4   RATE    0.597485    
 AG WELL      2   ROW     6   COL     5   RATE    0.587500    
 AG WELL      3   ROW     7   COL     4   RATE    0.595000    
 AG WELL      4   ROW     7   COL     5   RATE    0.574922    
 AG WELL      5   ROW     8   COL     4   RATE    0.595000    
 AG WELL      6   ROW     8   COL     5   RATE    0.490428    
 
1
  VOLUMETRIC BUDGET FOR AGRICULTURAL FIELDS AT TIME STEP    8, STRESS PERIOD   5
  ------------------------------------------------------------------------------

     CUMULATIVE VOLUMES      L**3       RATES FOR THIS TIME STEP      L**3/T
     ------------------                 ------------------------

           IN:                                      IN:
           ---                                      ---
               AG WELLS  =     1345095.5000                 AG WELLS  =           3.4403
      DIVERSION SEGMENTS =           0.0000        DIVERSION SEGMENTS =           0.0000
           GW IRRIGATION =           0.0000             GW IRRIGATION =           0.0000
           SW IRRIGATION =           0.0000             SW IRRIGATION =           0.0000
        SYSTEM LOSSES GW =           0.0000          SYSTEM LOSSES GW =           0.0000
        SYSTEM LOSSES SW =           0.0000          SYSTEM LOSSES SW =           0.0000

                TOTAL IN =     1345095.5000                  TOTAL IN =           3.4403

          OUT:                                     OUT:
          ----                                     ----
               AG WELLS  =           0.0000                 AG WELLS  =           0.0000
      DIVERSION SEGMENTS =           0.0000        DIVERSION SEGMENTS =           0.0000
           GW IRRIGATION =     1345095.5000             GW IRRIGATION =           3.4403
           SW IRRIGATION =           0.0000             SW IRRIGATION =           0.0000
        SYSTEM LOSSES GW =           0.0000          SYSTEM LOSSES GW =           0.0000
        SYSTEM LOSSES SW =           0.0000          SYSTEM LOSSES SW =           0.0000

               TOTAL OUT =     1345095.5000                 TOTAL OUT =           3.4403

                IN - OUT =           0.0000                  IN - OUT =           0.0000

     PERCENT DISCREPANCY =           0.00         PERCENT DISCREPANCY =           0.00



1
  VOLUMETRIC BUDGET FOR ENTIRE MODEL AT END OF TIME STEP    8, STRESS PERIOD   5
  ------------------------------------------------------------------------------

     CUMULATIVE VOLUMES      L**3       RATES FOR THIS TIME STEP      L**3/T
     ------------------                 ------------------------

           IN:                                      IN:
           ---                                      ---
             STORAGE     =     7634261.5000               STORAGE     =           5.6432
       CONSTANT HEAD     =           0.0000         CONSTANT HEAD     =           0.0000
     HEAD DEP BOUNDS     =     2476833.5000       HEAD DEP BOUNDS     =           0.2855
      STREAM LEAKAGE     =   107114360.0000        STREAM LEAKAGE     =          11.6110
        UZF RECHARGE     =      388445.9375          UZF RECHARGE     =           0.0000
               GW ET     =           0.0000                 GW ET     =           0.0000
     SURFACE LEAKAGE     =           0.0000       SURFACE LEAKAGE     =           0.0000
           AG WELLS      =           0.0000             AG WELLS      =           0.0000

                TOTAL IN =   117613904.0000                  TOTAL IN =          17.5397

          OUT:                                     OUT:
          ----                                     ----
             STORAGE     =    23492246.0000               STORAGE     =           1.2175
       CONSTANT HEAD     =           0.0000         CONSTANT HEAD     =           0.0000
     HEAD DEP BOUNDS     =     2535540.0000       HEAD DEP BOUNDS     =           0.2955
      STREAM LEAKAGE     =    90170392.0000        STREAM LEAKAGE     =          12.4413
        UZF RECHARGE     =           0.0000          UZF RECHARGE     =           0.0000
               GW ET     =       75144.7891                 GW ET     =           0.1449
     SURFACE LEAKAGE     =           0.0000       SURFACE LEAKAGE     =           0.0000
           AG WELLS      =     1345095.5000             AG WELLS      =           3.4403

               TOTAL OUT =   117618416.0000                 TOTAL OUT =          17.5396

                IN - OUT =       -4512.0000                  IN - OUT =       7.4387E-05

     PERCENT DISCREPANCY =          -0.00         PERCENT DISCREPANCY =           0.00






         TIME SUMMARY AT END OF TIME STEP    8 IN STRESS PERIOD    5
                    SECONDS     MINUTES      HOURS       DAYS        YEARS
                    -----------------------------------------------------------
   TIME STEP LENGTH  87667.      1461.1      24.352      1.0147     2.77799E-03
 STRESS PERIOD TIME 7.01333E+05  11689.      194.81      8.1173     2.22239E-02
         TOTAL TIME 8.67773E+06 1.44629E+05  2410.5      100.44     0.27498    
1
 
 SOLVING FOR HEAD 
                                                   Max.-Head-Change                         Max.-Flux-Residual
  Residual-Control   Outer-Iter.   Inner-Iter.     Column Row Layer    Maximum-Head-Change  Column Row Layer    Maximum-Flux-Residual          L2-NORM 
          0                 1           2             5    7     1      -0.1018831849E-01       5    7    1        -0.5424626298E+00      0.1464520876E+01
          0                 2           2             5    8     1      -0.4004838387E-02       5    8    1        -0.2223497083E+00      0.2575553014E+00
          0                 3           1             5    8     1       0.3895606623E-03       5    8    1         0.2220315812E-01      0.2435028410E-01
          0                 4           1             5    8     1      -0.2652764815E-04       5    8    1        -0.1552066368E-02      0.1640670620E-02

    ------------------------------------------------
       NWT REQUIRED            4 OUTER ITERATIONS 
       AND A TOTAL OF          6 INNER ITERATIONS.
    ------------------------------------------------

 OUTPUT CONTROL FOR STRESS PERIOD    5   TIME STEP    9
    PRINT BUDGET
    SAVE BUDGET
 UBDSV1 SAVING "         STORAGE" ON UNIT 102 AT TIME STEP  9, STRESS PERIOD   5
 UBDSV2 SAVING "   CONSTANT HEAD" ON UNIT 102 AT TIME STEP  9, STRESS PERIOD   5
 UBDSV1 SAVING "FLOW RIGHT FACE " ON UNIT 102 AT TIME STEP  9, STRESS PERIOD   5
 UBDSV1 SAVING "FLOW FRONT FACE " ON UNIT 102 AT TIME STEP  9, STRESS PERIOD   5

  HEAD DEP BOUNDS   PERIOD    5   STEP     9
 BOUNDARY      1   LAYER   1   ROW    13   COL     1   RATE   -0.295318    
 BOUNDARY      2   LAYER   1   ROW    14   COL     9   RATE    0.285476    



 STREAM LISTING     PERIOD      5   STEP        9

 LAYER ROW COL. STREAM  RCH.  FLOW INTO     FLOW TO   FLOW OUT OF   OVRLND.     DIRECT     STREAM       STREAM     STREAM     STREAM   STREAMBED  STREAMBED
                SEG.NO.  NO.  STRM. RCH.    AQUIFER    STRM. RCH.    RUNOFF     PRECIP       ET          HEAD       DEPTH      WIDTH   CONDCTNC.   GRADIENT

   1    1    1     1     1    2.8000E+01  2.5860E-01   2.7742E+01  0.000E+00  0.000E+00  0.000E+00  1.09427E+03  1.221E+00  1.361E+01  6.126E-02  1.407E+00
   1    2    2     1     2    2.7742E+01  4.0002E-01   2.7341E+01  0.000E+00  0.000E+00  0.000E+00  1.08928E+03  1.217E+00  1.355E+01  9.487E-02  1.406E+00
   1    3    3     1     3    2.7341E+01  3.4070E-01   2.7001E+01  0.000E+00  0.000E+00  0.000E+00  1.08363E+03  1.212E+00  1.348E+01  8.090E-02  1.404E+00
   1    3    4     1     4    2.7001E+01  3.1335E-01   2.6687E+01  0.000E+00  0.000E+00  0.000E+00  1.07861E+03  1.207E+00  1.342E+01  7.448E-02  1.402E+00
   1    4    5     2     1    2.4687E+01  3.2711E-01   2.4360E+01  0.000E+00  0.000E+00  0.000E+00  1.07313E+03  1.194E+00  1.200E+01  7.800E-02  1.398E+00
   1    5    6     2     2    2.4360E+01  2.5111E-01   2.4109E+01  0.000E+00  0.000E+00  0.000E+00  1.06769E+03  1.185E+00  1.200E+01  6.000E-02  1.395E+00
   1    6    6     2     3    2.4109E+01  2.5067E-01   2.3859E+01  0.000E+00  0.000E+00  0.000E+00  1.06297E+03  1.178E+00  1.200E+01  6.000E-02  1.393E+00
   1    7    6     2     4    2.3859E+01  2.5023E-01   2.3608E+01  0.000E+00  0.000E+00  0.000E+00  1.05825E+03  1.170E+00  1.200E+01  6.000E-02  1.390E+00
   1    8    6     2     5    2.3608E+01  2.4978E-01   2.3359E+01  0.000E+00  0.000E+00  0.000E+00  1.05352E+03  1.163E+00  1.200E+01  6.000E-02  1.388E+00
   1    3    5     3     1    2.0000E+00  2.8252E-01   1.7175E+00  0.000E+00  0.000E+00  0.000E+00  1.07555E+03  1.909E+00  9.636E+00  7.227E-02  1.955E+00
   1    3    6     3     2    1.7175E+00  2.4905E-01   1.4684E+00  0.000E+00  0.000E+00  0.000E+00  1.07264E+03  1.727E+00  8.909E+00  6.682E-02  1.864E+00
   1    3    7     3     3    1.4684E+00  1.9718E-01   1.2712E+00  0.000E+00  0.000E+00  0.000E+00  1.06987E+03  1.555E+00  8.218E+00  5.547E-02  1.777E+00
   1    4    8     3     4    1.2712E+00  2.2567E-01   1.0456E+00  0.000E+00  0.000E+00  0.000E+00  1.06682E+03  1.364E+00  7.455E+00  6.709E-02  1.682E+00
   1    5    8     3     5    1.0456E+00  1.5790E-01   8.8768E-01  0.000E+00  0.000E+00  0.000E+00  1.06362E+03  1.164E+00  6.655E+00  4.991E-02  1.582E+00
   1    6    8     3     6    8.8768E-01  5.5980E-02   8.3170E-01  0.000E+00  0.000E+00  0.000E+00  1.06158E+03  1.036E+00  6.145E+00  1.844E-02  1.518E+00
   1    5   10     4     1    1.0000E+01  9.0919E-02   9.9091E+00  0.000E+00  0.000E+00  0.000E+00  1.07836E+03  6.368E-01  1.000E+01  2.500E-02  1.212E+00
   1    5    9     4     2    9.9091E+00  1.8158E-01   9.7275E+00  0.000E+00  0.000E+00  0.000E+00  1.07154E+03  6.315E-01  1.000E+01  5.000E-02  1.211E+00
   1    6    8     4     3    9.7275E+00  1.2689E-01   9.6006E+00  0.000E+00  0.000E+00  0.000E+00  1.06381E+03  6.256E-01  1.000E+01  3.500E-02  1.209E+00
   1    6    8     5     1    1.0432E+01  2.2686E-01   1.0205E+01  0.000E+00  0.000E+00  0.000E+00  1.05868E+03  6.790E-01  1.542E+01  6.166E-02  1.226E+00
   1    7    7     5     2    1.0205E+01  2.7894E-01   9.9265E+00  0.000E+00  0.000E+00  0.000E+00  1.05417E+03  6.732E-01  1.519E+01  7.594E-02  1.224E+00
   1    8    7     5     3    9.9265E+00  1.9221E-01   9.7343E+00  0.000E+00  0.000E+00  0.000E+00  1.04992E+03  6.676E-01  1.497E+01  5.241E-02  1.223E+00
   1    8    6     5     4    9.7343E+00  1.3577E-01   9.5985E+00  0.000E+00  0.000E+00  0.000E+00  1.04691E+03  6.637E-01  1.482E+01  3.706E-02  1.221E+00
   1    9    6     6     1    3.2957E+01  2.6627E-01   3.2691E+01  0.000E+00  0.000E+00  0.000E+00  1.04417E+03  1.438E+00  1.200E+01  6.000E-02  1.479E+00
   1   10    7     6     2    3.2691E+01  2.6585E-01   3.2425E+01  0.000E+00  0.000E+00  0.000E+00  1.03961E+03  1.431E+00  1.200E+01  6.000E-02  1.477E+00
   1   11    7     6     3    3.2425E+01  2.6542E-01   3.2160E+01  0.000E+00  0.000E+00  0.000E+00  1.03506E+03  1.424E+00  1.200E+01  6.000E-02  1.475E+00
   1   12    7     6     4    3.2160E+01  2.6500E-01   3.1895E+01  0.000E+00  0.000E+00  0.000E+00  1.03051E+03  1.417E+00  1.200E+01  6.000E-02  1.472E+00
   1   13    7     6     5    3.1895E+01  3.4358E-03   3.1891E+01  0.000E+00  0.000E+00  0.000E+00  1.02732E+03  1.413E+00  1.200E+01  2.400E-02  4.772E-02
   1   14    9     7     1    1.5000E+02  1.3317E+00   1.4867E+02  0.000E+00  0.000E+00  0.000E+00  1.03987E+03  2.288E+00  5.529E+01  5.593E-01  7.936E-01
   1   13    8     7     2    1.4867E+02  1.8134E+00   1.4685E+02  0.000E+00  0.000E+00  0.000E+00  1.03478E+03  2.279E+00  5.526E+01  6.148E-01  9.832E-01
   1   13    7     7     3    1.4685E+02  1.4023E+00   1.4545E+02  0.000E+00  0.000E+00  0.000E+00  1.02969E+03  2.271E+00  5.522E+01  5.585E-01  8.370E-01
   1   13    6     8     1    1.7734E+02  8.6040E-01   1.7648E+02  0.000E+00  0.000E+00  0.000E+00  1.02487E+03  2.997E+00  4.345E+01  4.428E-01  6.477E-01
   1   13    5     8     2    1.7648E+02  9.5001E-02   1.7639E+02  0.000E+00  0.000E+00  0.000E+00  1.01862E+03  2.994E+00  4.341E+01  4.423E-01  7.159E-02
   1   13    4     8     3    1.7639E+02 -2.9735E+00   1.7936E+02  0.000E+00  0.000E+00  0.000E+00  1.01238E+03  3.003E+00  4.354E+01  4.437E+00 -2.234E-01
   1   13    3     8     4    1.7936E+02 -4.0852E+00   1.8345E+02  0.000E+00  0.000E+00  0.000E+00  1.00615E+03  3.025E+00  4.386E+01  4.470E+00 -3.047E-01
   1   13    2     8     5    1.8345E+02 -3.0081E+00   1.8645E+02  0.000E+00  0.000E+00  0.000E+00  9.99922E+02  3.047E+00  4.418E+01  4.502E+00 -2.227E-01
   1   13    1     8     6    1.8645E+02 -2.2630E+00   1.8872E+02  0.000E+00  0.000E+00  0.000E+00  9.94938E+02  3.063E+00  4.442E+01  2.716E+00 -2.778E-01



 UBDSV3 SAVING "           GW ET" ON UNIT  61 AT TIME STEP  9, STRESS PERIOD   5
 UBDSV3 SAVING "    UZF RECHARGE" ON UNIT  61 AT TIME STEP  9, STRESS PERIOD   5
 UBDSV3 SAVING " SURFACE LEAKAGE" ON UNIT  61 AT TIME STEP  9, STRESS PERIOD   5
 UBDSV3 SAVING "       HORT+DUNN" ON UNIT  61 AT TIME STEP  9, STRESS PERIOD   5
 UBDSV3 SAVING "  STORAGE CHANGE" ON UNIT  61 AT TIME STEP  9, STRESS PERIOD   5


UNSATURATED ZONE PACKAGE VOLUMETRIC BUDGET FOR  TIME STEP     9 STRESS PERIOD    5
  ------------------------------------------------------------------------------



     CUMULATIVE VOLUMES      L**3       RATES FOR THIS TIME STEP      L**3/T
     ------------------                 ------------------------

           IN:                                      IN:
           ---                                      ---
        INFILTRATION =    39973174.3713          INFILTRATION =           7.8542

          OUT:                                     OUT:
          ----                                     ----
              UZF ET =    22487064.5662                UZF ET =           9.2656
        UZF RECHARGE =      388446.0629          UZF RECHARGE =       0.0000E+00

            IN - OUT =    17097663.7423              IN - OUT =          -1.4113

          STORAGE:                                 STORAGE:
          --------                                 --------
      STORAGE CHANGE =    17098235.9805        STORAGE CHANGE =          -1.4113

 PERCENT DISCREPANCY IS DIFFERENCE BETWEEN IN-OUT MINUS CHANGE IN STORAGE
 DIVIDED BY THE AVERAGE OF IN AND OUT TIMES 100

 PERCENT DISCREPANCY =          -0.00     PERCENT DISCREPANCY =           0.00






 

            AG WELLS      PERIOD    5   STEP   9
 AG WELL      1   LAYER   1   ROW     6   COL     4   RATE   -0.597485    
 AG WELL      2   LAYER   1   ROW     6   COL     5   RATE   -0.587500    
 AG WELL      3   LAYER   1   ROW     7   COL     4   RATE   -0.595000    
 AG WELL      4   LAYER   1   ROW     7   COL     5   RATE   -0.574933    
 AG WELL      5   LAYER   1   ROW     8   COL     4   RATE   -0.595000    
 AG WELL      6   LAYER   1   ROW     8   COL     5   RATE   -0.496818    
 
 

        GW IRRIGATION     PERIOD    5   STEP   9
 AG WELL      1   ROW     6   COL     4   RATE    0.597485    
 AG WELL      2   ROW     6   COL     5   RATE    0.587500    
 AG WELL      3   ROW     7   COL     4   RATE    0.595000    
 AG WELL      4   ROW     7   COL     5   RATE    0.574933    
 AG WELL      5   ROW     8   COL     4   RATE    0.595000    
 AG WELL      6   ROW     8   COL     5   RATE    0.496818    
 
1
  VOLUMETRIC BUDGET FOR AGRICULTURAL FIELDS AT TIME STEP    9, STRESS PERIOD   5
  ------------------------------------------------------------------------------

     CUMULATIVE VOLUMES      L**3       RATES FOR THIS TIME STEP      L**3/T
     ------------------                 ------------------------

           IN:                                      IN:
           ---                                      ---
               AG WELLS  =     1647259.2500                 AG WELLS  =           3.4467
      DIVERSION SEGMENTS =           0.0000        DIVERSION SEGMENTS =           0.0000
           GW IRRIGATION =           0.0000             GW IRRIGATION =           0.0000
           SW IRRIGATION =           0.0000             SW IRRIGATION =           0.0000
        SYSTEM LOSSES GW =           0.0000          SYSTEM LOSSES GW =           0.0000
        SYSTEM LOSSES SW =           0.0000          SYSTEM LOSSES SW =           0.0000

                TOTAL IN =     1647259.2500                  TOTAL IN =           3.4467

          OUT:                                     OUT:
          ----                                     ----
               AG WELLS  =           0.0000                 AG WELLS  =           0.0000
      DIVERSION SEGMENTS =           0.0000        DIVERSION SEGMENTS =           0.0000
           GW IRRIGATION =     1647259.2500             GW IRRIGATION =           3.4467
           SW IRRIGATION =           0.0000             SW IRRIGATION =           0.0000
        SYSTEM LOSSES GW =           0.0000          SYSTEM LOSSES GW =           0.0000
        SYSTEM LOSSES SW =           0.0000          SYSTEM LOSSES SW =           0.0000

               TOTAL OUT =     1647259.2500                 TOTAL OUT =           3.4467

                IN - OUT =           0.0000                  IN - OUT =           0.0000

     PERCENT DISCREPANCY =           0.00         PERCENT DISCREPANCY =           0.00



1
  VOLUMETRIC BUDGET FOR ENTIRE MODEL AT END OF TIME STEP    9, STRESS PERIOD   5
  ------------------------------------------------------------------------------

     CUMULATIVE VOLUMES      L**3       RATES FOR THIS TIME STEP      L**3/T
     ------------------                 ------------------------

           IN:                                      IN:
           ---                                      ---
             STORAGE     =     8115764.0000               STORAGE     =           5.4924
       CONSTANT HEAD     =           0.0000         CONSTANT HEAD     =           0.0000
     HEAD DEP BOUNDS     =     2501860.2500       HEAD DEP BOUNDS     =           0.2855
      STREAM LEAKAGE     =   108132336.0000        STREAM LEAKAGE     =          11.6119
        UZF RECHARGE     =      388445.9375          UZF RECHARGE     =           0.0000
               GW ET     =           0.0000                 GW ET     =           0.0000
     SURFACE LEAKAGE     =           0.0000       SURFACE LEAKAGE     =           0.0000
           AG WELLS      =           0.0000             AG WELLS      =           0.0000

                TOTAL IN =   119138408.0000                  TOTAL IN =          17.3898

          OUT:                                     OUT:
          ----                                     ----
             STORAGE     =    23596580.0000               STORAGE     =           1.1901
       CONSTANT HEAD     =           0.0000         CONSTANT HEAD     =           0.0000
     HEAD DEP BOUNDS     =     2561429.5000       HEAD DEP BOUNDS     =           0.2953
      STREAM LEAKAGE     =    91251296.0000        STREAM LEAKAGE     =          12.3297
        UZF RECHARGE     =           0.0000          UZF RECHARGE     =           0.0000
               GW ET     =       86346.1250                 GW ET     =           0.1278
     SURFACE LEAKAGE     =           0.0000       SURFACE LEAKAGE     =           0.0000
           AG WELLS      =     1647259.2500             AG WELLS      =           3.4467

               TOTAL OUT =   119142904.0000                 TOTAL OUT =          17.3897

                IN - OUT =       -4496.0000                  IN - OUT =       7.2479E-05

     PERCENT DISCREPANCY =          -0.00         PERCENT DISCREPANCY =           0.00






         TIME SUMMARY AT END OF TIME STEP    9 IN STRESS PERIOD    5
                    SECONDS     MINUTES      HOURS       DAYS        YEARS
                    -----------------------------------------------------------
   TIME STEP LENGTH  87667.      1461.1      24.352      1.0147     2.77799E-03
 STRESS PERIOD TIME 7.89000E+05  13150.      219.17      9.1319     2.50019E-02
         TOTAL TIME 8.76540E+06 1.46090E+05  2434.8      101.45     0.27776    
1
 
 SOLVING FOR HEAD 
                                                   Max.-Head-Change                         Max.-Flux-Residual
  Residual-Control   Outer-Iter.   Inner-Iter.     Column Row Layer    Maximum-Head-Change  Column Row Layer    Maximum-Flux-Residual          L2-NORM 
          0                 1           2             5    7     1      -0.1002828283E-01       5    7    1        -0.5339297531E+00      0.1403668608E+01
          0                 2           2             5    8     1      -0.3981045950E-02       5    8    1        -0.2210290773E+00      0.2537579351E+00
          0                 3           2             5    8     1       0.3872463146E-03       5    8    1         0.2207160019E-01      0.2411259039E-01
          0                 4           1             5    8     1      -0.2637004718E-04       5    8    1        -0.1542891539E-02      0.1630574655E-02

    ------------------------------------------------
       NWT REQUIRED            4 OUTER ITERATIONS 
       AND A TOTAL OF          7 INNER ITERATIONS.
    ------------------------------------------------

 OUTPUT CONTROL FOR STRESS PERIOD    5   TIME STEP   10
    PRINT BUDGET
    SAVE BUDGET
 UBDSV1 SAVING "         STORAGE" ON UNIT 102 AT TIME STEP 10, STRESS PERIOD   5
 UBDSV2 SAVING "   CONSTANT HEAD" ON UNIT 102 AT TIME STEP 10, STRESS PERIOD   5
 UBDSV1 SAVING "FLOW RIGHT FACE " ON UNIT 102 AT TIME STEP 10, STRESS PERIOD   5
 UBDSV1 SAVING "FLOW FRONT FACE " ON UNIT 102 AT TIME STEP 10, STRESS PERIOD   5

  HEAD DEP BOUNDS   PERIOD    5   STEP    10
 BOUNDARY      1   LAYER   1   ROW    13   COL     1   RATE   -0.295125    
 BOUNDARY      2   LAYER   1   ROW    14   COL     9   RATE    0.285477    



 STREAM LISTING     PERIOD      5   STEP       10

 LAYER ROW COL. STREAM  RCH.  FLOW INTO     FLOW TO   FLOW OUT OF   OVRLND.     DIRECT     STREAM       STREAM     STREAM     STREAM   STREAMBED  STREAMBED
                SEG.NO.  NO.  STRM. RCH.    AQUIFER    STRM. RCH.    RUNOFF     PRECIP       ET          HEAD       DEPTH      WIDTH   CONDCTNC.   GRADIENT

   1    1    1     1     1    2.8000E+01  2.5860E-01   2.7742E+01  0.000E+00  0.000E+00  0.000E+00  1.09427E+03  1.221E+00  1.361E+01  6.126E-02  1.407E+00
   1    2    2     1     2    2.7742E+01  4.0002E-01   2.7341E+01  0.000E+00  0.000E+00  0.000E+00  1.08928E+03  1.217E+00  1.355E+01  9.487E-02  1.406E+00
   1    3    3     1     3    2.7341E+01  3.4070E-01   2.7001E+01  0.000E+00  0.000E+00  0.000E+00  1.08363E+03  1.212E+00  1.348E+01  8.090E-02  1.404E+00
   1    3    4     1     4    2.7001E+01  3.1335E-01   2.6687E+01  0.000E+00  0.000E+00  0.000E+00  1.07861E+03  1.207E+00  1.342E+01  7.448E-02  1.402E+00
   1    4    5     2     1    2.4687E+01  3.2711E-01   2.4360E+01  0.000E+00  0.000E+00  0.000E+00  1.07313E+03  1.194E+00  1.200E+01  7.800E-02  1.398E+00
   1    5    6     2     2    2.4360E+01  2.5111E-01   2.4109E+01  0.000E+00  0.000E+00  0.000E+00  1.06769E+03  1.185E+00  1.200E+01  6.000E-02  1.395E+00
   1    6    6     2     3    2.4109E+01  2.5067E-01   2.3859E+01  0.000E+00  0.000E+00  0.000E+00  1.06297E+03  1.178E+00  1.200E+01  6.000E-02  1.393E+00
   1    7    6     2     4    2.3859E+01  2.5023E-01   2.3608E+01  0.000E+00  0.000E+00  0.000E+00  1.05825E+03  1.170E+00  1.200E+01  6.000E-02  1.390E+00
   1    8    6     2     5    2.3608E+01  2.4978E-01   2.3359E+01  0.000E+00  0.000E+00  0.000E+00  1.05352E+03  1.163E+00  1.200E+01  6.000E-02  1.388E+00
   1    3    5     3     1    2.0000E+00  2.8252E-01   1.7175E+00  0.000E+00  0.000E+00  0.000E+00  1.07555E+03  1.909E+00  9.636E+00  7.227E-02  1.955E+00
   1    3    6     3     2    1.7175E+00  2.4905E-01   1.4684E+00  0.000E+00  0.000E+00  0.000E+00  1.07264E+03  1.727E+00  8.909E+00  6.682E-02  1.864E+00
   1    3    7     3     3    1.4684E+00  1.9718E-01   1.2712E+00  0.000E+00  0.000E+00  0.000E+00  1.06987E+03  1.555E+00  8.218E+00  5.547E-02  1.777E+00
   1    4    8     3     4    1.2712E+00  2.2567E-01   1.0456E+00  0.000E+00  0.000E+00  0.000E+00  1.06682E+03  1.364E+00  7.455E+00  6.709E-02  1.682E+00
   1    5    8     3     5    1.0456E+00  1.5790E-01   8.8768E-01  0.000E+00  0.000E+00  0.000E+00  1.06362E+03  1.164E+00  6.655E+00  4.991E-02  1.582E+00
   1    6    8     3     6    8.8768E-01  5.5980E-02   8.3170E-01  0.000E+00  0.000E+00  0.000E+00  1.06158E+03  1.036E+00  6.145E+00  1.844E-02  1.518E+00
   1    5   10     4     1    1.0000E+01  9.0919E-02   9.9091E+00  0.000E+00  0.000E+00  0.000E+00  1.07836E+03  6.368E-01  1.000E+01  2.500E-02  1.212E+00
   1    5    9     4     2    9.9091E+00  1.8158E-01   9.7275E+00  0.000E+00  0.000E+00  0.000E+00  1.07154E+03  6.315E-01  1.000E+01  5.000E-02  1.211E+00
   1    6    8     4     3    9.7275E+00  1.2689E-01   9.6006E+00  0.000E+00  0.000E+00  0.000E+00  1.06381E+03  6.256E-01  1.000E+01  3.500E-02  1.209E+00
   1    6    8     5     1    1.0432E+01  2.2686E-01   1.0205E+01  0.000E+00  0.000E+00  0.000E+00  1.05868E+03  6.790E-01  1.542E+01  6.166E-02  1.226E+00
   1    7    7     5     2    1.0205E+01  2.7894E-01   9.9265E+00  0.000E+00  0.000E+00  0.000E+00  1.05417E+03  6.732E-01  1.519E+01  7.594E-02  1.224E+00
   1    8    7     5     3    9.9265E+00  1.9221E-01   9.7343E+00  0.000E+00  0.000E+00  0.000E+00  1.04992E+03  6.676E-01  1.497E+01  5.241E-02  1.223E+00
   1    8    6     5     4    9.7343E+00  1.3577E-01   9.5985E+00  0.000E+00  0.000E+00  0.000E+00  1.04691E+03  6.637E-01  1.482E+01  3.706E-02  1.221E+00
   1    9    6     6     1    3.2957E+01  2.6627E-01   3.2691E+01  0.000E+00  0.000E+00  0.000E+00  1.04417E+03  1.438E+00  1.200E+01  6.000E-02  1.479E+00
   1   10    7     6     2    3.2691E+01  2.6585E-01   3.2425E+01  0.000E+00  0.000E+00  0.000E+00  1.03961E+03  1.431E+00  1.200E+01  6.000E-02  1.477E+00
   1   11    7     6     3    3.2425E+01  2.6542E-01   3.2160E+01  0.000E+00  0.000E+00  0.000E+00  1.03506E+03  1.424E+00  1.200E+01  6.000E-02  1.475E+00
   1   12    7     6     4    3.2160E+01  2.6500E-01   3.1895E+01  0.000E+00  0.000E+00  0.000E+00  1.03051E+03  1.417E+00  1.200E+01  6.000E-02  1.472E+00
   1   13    7     6     5    3.1895E+01  3.4289E-03   3.1891E+01  0.000E+00  0.000E+00  0.000E+00  1.02732E+03  1.413E+00  1.200E+01  2.400E-02  4.762E-02
   1   14    9     7     1    1.5000E+02  1.3317E+00   1.4867E+02  0.000E+00  0.000E+00  0.000E+00  1.03987E+03  2.288E+00  5.529E+01  5.593E-01  7.937E-01
   1   13    8     7     2    1.4867E+02  1.8133E+00   1.4686E+02  0.000E+00  0.000E+00  0.000E+00  1.03478E+03  2.279E+00  5.526E+01  6.148E-01  9.832E-01
   1   13    7     7     3    1.4686E+02  1.4022E+00   1.4545E+02  0.000E+00  0.000E+00  0.000E+00  1.02969E+03  2.271E+00  5.522E+01  5.585E-01  8.369E-01
   1   13    6     8     1    1.7734E+02  8.6093E-01   1.7648E+02  0.000E+00  0.000E+00  0.000E+00  1.02487E+03  2.997E+00  4.345E+01  4.428E-01  6.481E-01
   1   13    5     8     2    1.7648E+02  9.5609E-02   1.7639E+02  0.000E+00  0.000E+00  0.000E+00  1.01862E+03  2.994E+00  4.341E+01  4.423E-01  7.205E-02
   1   13    4     8     3    1.7639E+02 -2.9447E+00   1.7933E+02  0.000E+00  0.000E+00  0.000E+00  1.01238E+03  3.003E+00  4.354E+01  4.437E+00 -2.212E-01
   1   13    3     8     4    1.7933E+02 -4.0551E+00   1.8339E+02  0.000E+00  0.000E+00  0.000E+00  1.00615E+03  3.025E+00  4.386E+01  4.469E+00 -3.024E-01
   1   13    2     8     5    1.8339E+02 -2.9776E+00   1.8636E+02  0.000E+00  0.000E+00  0.000E+00  9.99922E+02  3.047E+00  4.417E+01  4.502E+00 -2.205E-01
   1   13    1     8     6    1.8636E+02 -2.2504E+00   1.8862E+02  0.000E+00  0.000E+00  0.000E+00  9.94938E+02  3.063E+00  4.441E+01  2.715E+00 -2.763E-01



 UBDSV3 SAVING "           GW ET" ON UNIT  61 AT TIME STEP 10, STRESS PERIOD   5
 UBDSV3 SAVING "    UZF RECHARGE" ON UNIT  61 AT TIME STEP 10, STRESS PERIOD   5
 UBDSV3 SAVING " SURFACE LEAKAGE" ON UNIT  61 AT TIME STEP 10, STRESS PERIOD   5
 UBDSV3 SAVING "       HORT+DUNN" ON UNIT  61 AT TIME STEP 10, STRESS PERIOD   5
 UBDSV3 SAVING "  STORAGE CHANGE" ON UNIT  61 AT TIME STEP 10, STRESS PERIOD   5


UNSATURATED ZONE PACKAGE VOLUMETRIC BUDGET FOR  TIME STEP    10 STRESS PERIOD    5
  ------------------------------------------------------------------------------



     CUMULATIVE VOLUMES      L**3       RATES FOR THIS TIME STEP      L**3/T
     ------------------                 ------------------------

           IN:                                      IN:
           ---                                      ---
        INFILTRATION =    40661917.8860          INFILTRATION =           7.8564

          OUT:                                     OUT:
          ----                                     ----
              UZF ET =    23175905.3816                UZF ET =           7.8575
        UZF RECHARGE =      388446.0629          UZF RECHARGE =       0.0000E+00

            IN - OUT =    17097566.4415              IN - OUT =      -1.1100E-03

          STORAGE:                                 STORAGE:
          --------                                 --------
      STORAGE CHANGE =    17098138.6712        STORAGE CHANGE =      -1.1100E-03

 PERCENT DISCREPANCY IS DIFFERENCE BETWEEN IN-OUT MINUS CHANGE IN STORAGE
 DIVIDED BY THE AVERAGE OF IN AND OUT TIMES 100

 PERCENT DISCREPANCY =          -0.00     PERCENT DISCREPANCY =           0.00






 

            AG WELLS      PERIOD    5   STEP  10
 AG WELL      1   LAYER   1   ROW     6   COL     4   RATE   -0.597485    
 AG WELL      2   LAYER   1   ROW     6   COL     5   RATE   -0.587500    
 AG WELL      3   LAYER   1   ROW     7   COL     4   RATE   -0.595000    
 AG WELL      4   LAYER   1   ROW     7   COL     5   RATE   -0.574943    
 AG WELL      5   LAYER   1   ROW     8   COL     4   RATE   -0.595000    
 AG WELL      6   LAYER   1   ROW     8   COL     5   RATE   -0.498963    
 
 

        GW IRRIGATION     PERIOD    5   STEP  10
 AG WELL      1   ROW     6   COL     4   RATE    0.597485    
 AG WELL      2   ROW     6   COL     5   RATE    0.587500    
 AG WELL      3   ROW     7   COL     4   RATE    0.595000    
 AG WELL      4   ROW     7   COL     5   RATE    0.574943    
 AG WELL      5   ROW     8   COL     4   RATE    0.595000    
 AG WELL      6   ROW     8   COL     5   RATE    0.498963    
 
1
  VOLUMETRIC BUDGET FOR AGRICULTURAL FIELDS AT TIME STEP   10, STRESS PERIOD   5
  ------------------------------------------------------------------------------

     CUMULATIVE VOLUMES      L**3       RATES FOR THIS TIME STEP      L**3/T
     ------------------                 ------------------------

           IN:                                      IN:
           ---                                      ---
               AG WELLS  =     1949612.0000                 AG WELLS  =           3.4489
      DIVERSION SEGMENTS =           0.0000        DIVERSION SEGMENTS =           0.0000
           GW IRRIGATION =           0.0000             GW IRRIGATION =           0.0000
           SW IRRIGATION =           0.0000             SW IRRIGATION =           0.0000
        SYSTEM LOSSES GW =           0.0000          SYSTEM LOSSES GW =           0.0000
        SYSTEM LOSSES SW =           0.0000          SYSTEM LOSSES SW =           0.0000

                TOTAL IN =     1949612.0000                  TOTAL IN =           3.4489

          OUT:                                     OUT:
          ----                                     ----
               AG WELLS  =           0.0000                 AG WELLS  =           0.0000
      DIVERSION SEGMENTS =           0.0000        DIVERSION SEGMENTS =           0.0000
           GW IRRIGATION =     1949612.0000             GW IRRIGATION =           3.4489
           SW IRRIGATION =           0.0000             SW IRRIGATION =           0.0000
        SYSTEM LOSSES GW =           0.0000          SYSTEM LOSSES GW =           0.0000
        SYSTEM LOSSES SW =           0.0000          SYSTEM LOSSES SW =           0.0000

               TOTAL OUT =     1949612.0000                 TOTAL OUT =           3.4489

                IN - OUT =           0.0000                  IN - OUT =           0.0000

     PERCENT DISCREPANCY =           0.00         PERCENT DISCREPANCY =           0.00



1
  VOLUMETRIC BUDGET FOR ENTIRE MODEL AT END OF TIME STEP   10, STRESS PERIOD   5
  ------------------------------------------------------------------------------

     CUMULATIVE VOLUMES      L**3       RATES FOR THIS TIME STEP      L**3/T
     ------------------                 ------------------------

           IN:                                      IN:
           ---                                      ---
             STORAGE     =     8584932.0000               STORAGE     =           5.3517
       CONSTANT HEAD     =           0.0000         CONSTANT HEAD     =           0.0000
     HEAD DEP BOUNDS     =     2526887.0000       HEAD DEP BOUNDS     =           0.2855
      STREAM LEAKAGE     =   109150384.0000        STREAM LEAKAGE     =          11.6127
        UZF RECHARGE     =      388445.9375          UZF RECHARGE     =           0.0000
               GW ET     =           0.0000                 GW ET     =           0.0000
     SURFACE LEAKAGE     =           0.0000       SURFACE LEAKAGE     =           0.0000
           AG WELLS      =           0.0000             AG WELLS      =           0.0000

                TOTAL IN =   120650648.0000                  TOTAL IN =          17.2499

          OUT:                                     OUT:
          ----                                     ----
             STORAGE     =    23698766.0000               STORAGE     =           1.1656
       CONSTANT HEAD     =           0.0000         CONSTANT HEAD     =           0.0000
     HEAD DEP BOUNDS     =     2587302.2500       HEAD DEP BOUNDS     =           0.2951
      STREAM LEAKAGE     =    92323264.0000        STREAM LEAKAGE     =          12.2278
        UZF RECHARGE     =           0.0000          UZF RECHARGE     =           0.0000
               GW ET     =       96197.2969                 GW ET     =           0.1124
     SURFACE LEAKAGE     =           0.0000       SURFACE LEAKAGE     =           0.0000
           AG WELLS      =     1949612.0000             AG WELLS      =           3.4489

               TOTAL OUT =   120655136.0000                 TOTAL OUT =          17.2498

                IN - OUT =       -4488.0000                  IN - OUT =       7.2479E-05

     PERCENT DISCREPANCY =          -0.00         PERCENT DISCREPANCY =           0.00






         TIME SUMMARY AT END OF TIME STEP   10 IN STRESS PERIOD    5
                    SECONDS     MINUTES      HOURS       DAYS        YEARS
                    -----------------------------------------------------------
   TIME STEP LENGTH  87667.      1461.1      24.352      1.0147     2.77799E-03
 STRESS PERIOD TIME 8.76667E+05  14611.      243.52      10.147     2.77799E-02
         TOTAL TIME 8.85306E+06 1.47551E+05  2459.2      102.47     0.28054    
1
 
 SOLVING FOR HEAD 
                                                   Max.-Head-Change                         Max.-Flux-Residual
  Residual-Control   Outer-Iter.   Inner-Iter.     Column Row Layer    Maximum-Head-Change  Column Row Layer    Maximum-Flux-Residual          L2-NORM 
          0                 1           2             5    7     1      -0.9870568206E-02       5    7    1        -0.5255682589E+00      0.1349058529E+01
          0                 2           2             5    8     1      -0.4010014974E-02       5    8    1        -0.2226212986E+00      0.2529713414E+00
          0                 3           2             5    8     1       0.3900641961E-03       5    8    1         0.2223137523E-01      0.2416498682E-01
          0                 4           1             5    8     1      -0.2656193501E-04       5    8    1        -0.1554113438E-02      0.1640020827E-02

    ------------------------------------------------
       NWT REQUIRED            4 OUTER ITERATIONS 
       AND A TOTAL OF          7 INNER ITERATIONS.
    ------------------------------------------------

 NO OUTPUT CONTROL FOR STRESS PERIOD    5   TIME STEP   11
 
 SOLVING FOR HEAD 
                                                   Max.-Head-Change                         Max.-Flux-Residual
  Residual-Control   Outer-Iter.   Inner-Iter.     Column Row Layer    Maximum-Head-Change  Column Row Layer    Maximum-Flux-Residual          L2-NORM 
          0                 1           2             4    7     1      -0.9745474032E-02       5    7    1        -0.5173766115E+00      0.1300410047E+01
          0                 2           2             5    8     1      -0.4033242477E-02       5    8    1        -0.2238957436E+00      0.2522753906E+00
          0                 3           2             5    8     1       0.3923235865E-03       5    8    1         0.2235936679E-01      0.2420611554E-01
          0                 4           1             5    8     1      -0.2671579062E-04       5    8    1        -0.1563110048E-02      0.1647771585E-02

    ------------------------------------------------
       NWT REQUIRED            4 OUTER ITERATIONS 
       AND A TOTAL OF          7 INNER ITERATIONS.
    ------------------------------------------------

 NO OUTPUT CONTROL FOR STRESS PERIOD    5   TIME STEP   12
 
 SOLVING FOR HEAD 
                                                   Max.-Head-Change                         Max.-Flux-Residual
  Residual-Control   Outer-Iter.   Inner-Iter.     Column Row Layer    Maximum-Head-Change  Column Row Layer    Maximum-Flux-Residual          L2-NORM 
          0                 1           2             4    7     1      -0.9660477698E-02       5    7    1        -0.5093495272E+00      0.1256930539E+01
          0                 2           2             5    8     1      -0.4053933220E-02       5    8    1        -0.2250294766E+00      0.2517703129E+00
          0                 3           2             5    8     1       0.3943362207E-03       5    8    1         0.2247328224E-01      0.2425012478E-01
          0                 4           1             5    8     1      -0.2685284362E-04       5    8    1        -0.1571120999E-02      0.1655177168E-02

    ------------------------------------------------
       NWT REQUIRED            4 OUTER ITERATIONS 
       AND A TOTAL OF          7 INNER ITERATIONS.
    ------------------------------------------------

 NO OUTPUT CONTROL FOR STRESS PERIOD    5   TIME STEP   13
 
 SOLVING FOR HEAD 
                                                   Max.-Head-Change                         Max.-Flux-Residual
  Residual-Control   Outer-Iter.   Inner-Iter.     Column Row Layer    Maximum-Head-Change  Column Row Layer    Maximum-Flux-Residual          L2-NORM 
          0                 1           2             4    7     1      -0.9574077205E-02       4    7    1        -0.5024509925E+00      0.1217953773E+01
          0                 2           2             5    8     1      -0.4073215218E-02       5    8    1        -0.2260849504E+00      0.2514562645E+00
          0                 3           2             5    8     1       0.3961803219E-03       5    8    1         0.2257739347E-01      0.2429700585E-01
          0                 4           1             5    8     1      -0.2697842009E-04       5    8    1        -0.1578432707E-02      0.1661927525E-02

    ------------------------------------------------
       NWT REQUIRED            4 OUTER ITERATIONS 
       AND A TOTAL OF          7 INNER ITERATIONS.
    ------------------------------------------------

 NO OUTPUT CONTROL FOR STRESS PERIOD    5   TIME STEP   14
 
 SOLVING FOR HEAD 
                                                   Max.-Head-Change                         Max.-Flux-Residual
  Residual-Control   Outer-Iter.   Inner-Iter.     Column Row Layer    Maximum-Head-Change  Column Row Layer    Maximum-Flux-Residual          L2-NORM 
          0                 1           2             4    7     1      -0.9485686635E-02       4    7    1        -0.4979413117E+00      0.1182889555E+01
          0                 2           2             5    8     1      -0.4091253929E-02       5    8    1        -0.2270712971E+00      0.2512951569E+00
          0                 3           2             5    8     1       0.3979349871E-03       5    8    1         0.2267633792E-01      0.2434930199E-01
          0                 4           1             5    8     1      -0.2709790672E-04       5    8    1        -0.1585379930E-02      0.1668692083E-02

    ------------------------------------------------
       NWT REQUIRED            4 OUTER ITERATIONS 
       AND A TOTAL OF          7 INNER ITERATIONS.
    ------------------------------------------------

 NO OUTPUT CONTROL FOR STRESS PERIOD    5   TIME STEP   15
 
 SOLVING FOR HEAD 
                                                   Max.-Head-Change                         Max.-Flux-Residual
  Residual-Control   Outer-Iter.   Inner-Iter.     Column Row Layer    Maximum-Head-Change  Column Row Layer    Maximum-Flux-Residual          L2-NORM 
          0                 1           2             4    7     1      -0.9396089946E-02       4    7    1        -0.4933581616E+00      0.1151206635E+01
          0                 2           2             5    8     1      -0.4108397868E-02       5    8    1        -0.2280077627E+00      0.2512667626E+00
          0                 3           2             5    8     1       0.3996026158E-03       5    8    1         0.2277030733E-01      0.2440509923E-01
          0                 4           1             5    8     1      -0.2721146587E-04       5    8    1        -0.1591979741E-02      0.1675228887E-02

    ------------------------------------------------
       NWT REQUIRED            4 OUTER ITERATIONS 
       AND A TOTAL OF          7 INNER ITERATIONS.
    ------------------------------------------------

 NO OUTPUT CONTROL FOR STRESS PERIOD    5   TIME STEP   16
 
 SOLVING FOR HEAD 
                                                   Max.-Head-Change                         Max.-Flux-Residual
  Residual-Control   Outer-Iter.   Inner-Iter.     Column Row Layer    Maximum-Head-Change  Column Row Layer    Maximum-Flux-Residual          L2-NORM 
          0                 1           2             4    7     1      -0.9305217270E-02       4    7    1        -0.4886975274E+00      0.1122479545E+01
          0                 2           2             5    8     1      -0.4124708699E-02       5    8    1        -0.2288979614E+00      0.2513455991E+00
          0                 3           2             5    8     1       0.4011892059E-03       5    8    1         0.2285965685E-01      0.2446339141E-01
          0                 4           1             5    8     1      -0.2731950722E-04       5    8    1        -0.1598256654E-02      0.1681370182E-02

    ------------------------------------------------
       NWT REQUIRED            4 OUTER ITERATIONS 
       AND A TOTAL OF          7 INNER ITERATIONS.
    ------------------------------------------------

 NO OUTPUT CONTROL FOR STRESS PERIOD    5   TIME STEP   17
 
 SOLVING FOR HEAD 
                                                   Max.-Head-Change                         Max.-Flux-Residual
  Residual-Control   Outer-Iter.   Inner-Iter.     Column Row Layer    Maximum-Head-Change  Column Row Layer    Maximum-Flux-Residual          L2-NORM 
          0                 1           2             4    7     1      -0.9213550880E-02       4    7    1        -0.4839856822E+00      0.1096331215E+01
          0                 2           2             5    8     1      -0.4140244543E-02       5    8    1        -0.2297447892E+00      0.2515048041E+00
          0                 3           2             5    8     1       0.4027004441E-03       5    8    1         0.2294468564E-01      0.2452324565E-01
          0                 4           1             5    8     1      -0.2742241725E-04       5    8    1        -0.1604232259E-02      0.1687581305E-02

    ------------------------------------------------
       NWT REQUIRED            4 OUTER ITERATIONS 
       AND A TOTAL OF          7 INNER ITERATIONS.
    ------------------------------------------------

 NO OUTPUT CONTROL FOR STRESS PERIOD    5   TIME STEP   18
 
 SOLVING FOR HEAD 
                                                   Max.-Head-Change                         Max.-Flux-Residual
  Residual-Control   Outer-Iter.   Inner-Iter.     Column Row Layer    Maximum-Head-Change  Column Row Layer    Maximum-Flux-Residual          L2-NORM 
          0                 1           2             4    7     1      -0.9120993310E-02       4    7    1        -0.4792179941E+00      0.1072415560E+01
          0                 2           2             5    8     1      -0.4155079312E-02       5    8    1        -0.2305529256E+00      0.2517345224E+00
          0                 3           2             5    8     1       0.4041434219E-03       5    8    1         0.2302584378E-01      0.2458415111E-01
          0                 4           1             5    8     1      -0.2752067903E-04       5    8    1        -0.1609936732E-02      0.1693482591E-02

    ------------------------------------------------
       NWT REQUIRED            4 OUTER ITERATIONS 
       AND A TOTAL OF          7 INNER ITERATIONS.
    ------------------------------------------------

 NO OUTPUT CONTROL FOR STRESS PERIOD    5   TIME STEP   19
 
 SOLVING FOR HEAD 
                                                   Max.-Head-Change                         Max.-Flux-Residual
  Residual-Control   Outer-Iter.   Inner-Iter.     Column Row Layer    Maximum-Head-Change  Column Row Layer    Maximum-Flux-Residual          L2-NORM 
          0                 1           2             4    7     1      -0.9027716571E-02       4    7    1        -0.4744039575E+00      0.1050443308E+01
          0                 2           2             5    8     1      -0.4169232210E-02       5    8    1        -0.2313232276E+00      0.2520158786E+00
          0                 3           2             5    8     1       0.4055201380E-03       5    8    1         0.2310322309E-01      0.2464553154E-01
          0                 4           1             5    8     1      -0.2761442791E-04       5    8    1        -0.1615377074E-02      0.1699270794E-02

    ------------------------------------------------
       NWT REQUIRED            4 OUTER ITERATIONS 
       AND A TOTAL OF          7 INNER ITERATIONS.
    ------------------------------------------------

 NO OUTPUT CONTROL FOR STRESS PERIOD    5   TIME STEP   20
 
 SOLVING FOR HEAD 
                                                   Max.-Head-Change                         Max.-Flux-Residual
  Residual-Control   Outer-Iter.   Inner-Iter.     Column Row Layer    Maximum-Head-Change  Column Row Layer    Maximum-Flux-Residual          L2-NORM 
          0                 1           2             4    7     1      -0.8934155166E-02       4    7    1        -0.4695673496E+00      0.1030188315E+01
          0                 2           2             5    8     1      -0.4182751160E-02       5    8    1        -0.2320583634E+00      0.2523367305E+00
          0                 3           2             5    8     1       0.4068362054E-03       5    8    1         0.2317714939E-01      0.2470681476E-01
          0                 4           1             5    8     1      -0.2770404709E-04       5    8    1        -0.1620575930E-02      0.1704931724E-02

    ------------------------------------------------
       NWT REQUIRED            4 OUTER ITERATIONS 
       AND A TOTAL OF          7 INNER ITERATIONS.
    ------------------------------------------------

 NO OUTPUT CONTROL FOR STRESS PERIOD    5   TIME STEP   21
 
 SOLVING FOR HEAD 
                                                   Max.-Head-Change                         Max.-Flux-Residual
  Residual-Control   Outer-Iter.   Inner-Iter.     Column Row Layer    Maximum-Head-Change  Column Row Layer    Maximum-Flux-Residual          L2-NORM 
          0                 1           2             4    7     1      -0.8839911473E-02       4    7    1        -0.4646864398E+00      0.1011438787E+01
          0                 2           2             5    8     1      -0.4195644517E-02       5    8    1        -0.2327588665E+00      0.2526865524E+00
          0                 3           2             5    8     1       0.4080893204E-03       5    8    1         0.2324749509E-01      0.2476733664E-01
          0                 4           1             5    8     1      -0.2778938011E-04       5    8    1        -0.1625524287E-02      0.1710248892E-02

    ------------------------------------------------
       NWT REQUIRED            4 OUTER ITERATIONS 
       AND A TOTAL OF          7 INNER ITERATIONS.
    ------------------------------------------------

 NO OUTPUT CONTROL FOR STRESS PERIOD    5   TIME STEP   22
 
 SOLVING FOR HEAD 
                                                   Max.-Head-Change                         Max.-Flux-Residual
  Residual-Control   Outer-Iter.   Inner-Iter.     Column Row Layer    Maximum-Head-Change  Column Row Layer    Maximum-Flux-Residual          L2-NORM 
          0                 1           2             4    7     1      -0.8745954416E-02       4    7    1        -0.4598145248E+00      0.9940152184E+00
          0                 2           2             5    8     1      -0.4208012049E-02       5    8    1        -0.2334302264E+00      0.2530067421E+00
          0                 3           2             5    8     1       0.4092923373E-03       5    8    1         0.2331498869E-01      0.2482496201E-01
          0                 4           1             5    8     1      -0.2787130101E-04       5    8    1        -0.1630273151E-02      0.1715407577E-02

    ------------------------------------------------
       NWT REQUIRED            4 OUTER ITERATIONS 
       AND A TOTAL OF          7 INNER ITERATIONS.
    ------------------------------------------------

 NO OUTPUT CONTROL FOR STRESS PERIOD    5   TIME STEP   23
 
 SOLVING FOR HEAD 
                                                   Max.-Head-Change                         Max.-Flux-Residual
  Residual-Control   Outer-Iter.   Inner-Iter.     Column Row Layer    Maximum-Head-Change  Column Row Layer    Maximum-Flux-Residual          L2-NORM 
          0                 1           2             4    7     1      -0.8651567887E-02       4    7    1        -0.4549130419E+00      0.9778596009E+00
          0                 2           2             5    8     1      -0.4219857278E-02       5    8    1        -0.2340727083E+00      0.2534540310E+00
          0                 3           2             5    8     1       0.4104445485E-03       5    8    1         0.2337959493E-01      0.2488661628E-01
          0                 4           1             5    8     1      -0.2794976222E-04       5    8    1        -0.1634819930E-02      0.1720500515E-02

    ------------------------------------------------
       NWT REQUIRED            4 OUTER ITERATIONS 
       AND A TOTAL OF          7 INNER ITERATIONS.
    ------------------------------------------------

 NO OUTPUT CONTROL FOR STRESS PERIOD    5   TIME STEP   24
 
 SOLVING FOR HEAD 
                                                   Max.-Head-Change                         Max.-Flux-Residual
  Residual-Control   Outer-Iter.   Inner-Iter.     Column Row Layer    Maximum-Head-Change  Column Row Layer    Maximum-Flux-Residual          L2-NORM 
          0                 1           2             4    7     1      -0.8557435808E-02       4    7    1        -0.4500190101E+00      0.9627485633E+00
          0                 2           2             5    8     1      -0.4231184541E-02       5    8    1        -0.2346865302E+00      0.2538576722E+00
          0                 3           2             5    8     1       0.4115463760E-03       5    8    1         0.2344133631E-01      0.2494470866E-01
          0                 4           1             5    8     1      -0.2802479262E-04       5    8    1        -0.1639166253E-02      0.1725341487E-02

    ------------------------------------------------
       NWT REQUIRED            4 OUTER ITERATIONS 
       AND A TOTAL OF          7 INNER ITERATIONS.
    ------------------------------------------------

 NO OUTPUT CONTROL FOR STRESS PERIOD    5   TIME STEP   25
 
 SOLVING FOR HEAD 
                                                   Max.-Head-Change                         Max.-Flux-Residual
  Residual-Control   Outer-Iter.   Inner-Iter.     Column Row Layer    Maximum-Head-Change  Column Row Layer    Maximum-Flux-Residual          L2-NORM 
          0                 1           2             4    7     1      -0.8463374385E-02       4    7    1        -0.4451232252E+00      0.9485052086E+00
          0                 2           2             5    8     1      -0.4242084327E-02       5    8    1        -0.2352767322E+00      0.2542693373E+00
          0                 3           2             5    8     1       0.4126066217E-03       5    8    1         0.2350071562E-01      0.2500186928E-01
          0                 4           1             5    8     1      -0.2809699122E-04       5    8    1        -0.1643347220E-02      0.1730071512E-02

    ------------------------------------------------
       NWT REQUIRED            4 OUTER ITERATIONS 
       AND A TOTAL OF          7 INNER ITERATIONS.
    ------------------------------------------------

 NO OUTPUT CONTROL FOR STRESS PERIOD    5   TIME STEP   26
 
 SOLVING FOR HEAD 
                                                   Max.-Head-Change                         Max.-Flux-Residual
  Residual-Control   Outer-Iter.   Inner-Iter.     Column Row Layer    Maximum-Head-Change  Column Row Layer    Maximum-Flux-Residual          L2-NORM 
          0                 1           2             4    7     1      -0.8369490793E-02       4    7    1        -0.4402312225E+00      0.9350595078E+00
          0                 2           2             5    8     1      -0.4252523450E-02       5    8    1        -0.2358414787E+00      0.2546829062E+00
          0                 3           2             5    8     1       0.4136231081E-03       5    8    1         0.2355760898E-01      0.2505763884E-01
          0                 4           1             5    8     1      -0.2816621058E-04       5    8    1        -0.1647354177E-02      0.1734609494E-02

    ------------------------------------------------
       NWT REQUIRED            4 OUTER ITERATIONS 
       AND A TOTAL OF          7 INNER ITERATIONS.
    ------------------------------------------------

 NO OUTPUT CONTROL FOR STRESS PERIOD    5   TIME STEP   27
 
 SOLVING FOR HEAD 
                                                   Max.-Head-Change                         Max.-Flux-Residual
  Residual-Control   Outer-Iter.   Inner-Iter.     Column Row Layer    Maximum-Head-Change  Column Row Layer    Maximum-Flux-Residual          L2-NORM 
          0                 1           2             4    7     1      -0.8276148263E-02       4    7    1        -0.4353631509E+00      0.9223298590E+00
          0                 2           2             5    8     1      -0.4262558797E-02       5    8    1        -0.2363839961E+00      0.2550976552E+00
          0                 3           2             5    8     1       0.4145981848E-03       5    8    1         0.2361215772E-01      0.2511198695E-01
          0                 4           1             5    8     1      -0.2823260950E-04       5    8    1        -0.1651196766E-02      0.1739017015E-02

    ------------------------------------------------
       NWT REQUIRED            4 OUTER ITERATIONS 
       AND A TOTAL OF          7 INNER ITERATIONS.
    ------------------------------------------------

 NO OUTPUT CONTROL FOR STRESS PERIOD    5   TIME STEP   28
 
 SOLVING FOR HEAD 
                                                   Max.-Head-Change                         Max.-Flux-Residual
  Residual-Control   Outer-Iter.   Inner-Iter.     Column Row Layer    Maximum-Head-Change  Column Row Layer    Maximum-Flux-Residual          L2-NORM 
          0                 1           2             4    7     1      -0.8183048393E-02       4    7    1        -0.4305084222E+00      0.1004703403E+01
          0                 2           2             5    8     1      -0.4272857559E-02       5    8    1        -0.2369055739E+00      0.2588843439E+00
          0                 3           2             5    8     1       0.4155999950E-03       5    8    1         0.2366573679E-01      0.2532442312E-01
          0                 4           1             5    8     1      -0.2830082939E-04       5    8    1        -0.1655043944E-02      0.1746735196E-02

    ------------------------------------------------
       NWT REQUIRED            4 OUTER ITERATIONS 
       AND A TOTAL OF          7 INNER ITERATIONS.
    ------------------------------------------------

 NO OUTPUT CONTROL FOR STRESS PERIOD    5   TIME STEP   29
 
 SOLVING FOR HEAD 
                                                   Max.-Head-Change                         Max.-Flux-Residual
  Residual-Control   Outer-Iter.   Inner-Iter.     Column Row Layer    Maximum-Head-Change  Column Row Layer    Maximum-Flux-Residual          L2-NORM 
          0                 1           2             4   13     1       0.2582570793E-01       4   13    1         0.1495893819E+01      0.2787015968E+01
          0                 2           2             5    8     1      -0.4284523407E-02       5    8    1        -0.2374392009E+00      0.3732267935E+00
          0                 3           2             5    8     1       0.4167347097E-03       5    8    1         0.2372142847E-01      0.3112244344E-01
          0                 4           1             5    8     1      -0.2837809919E-04       5    8    1        -0.1659100554E-02      0.1881662458E-02

    ------------------------------------------------
       NWT REQUIRED            4 OUTER ITERATIONS 
       AND A TOTAL OF          7 INNER ITERATIONS.
    ------------------------------------------------

 NO OUTPUT CONTROL FOR STRESS PERIOD    5   TIME STEP   30



 STREAM LISTING     PERIOD      5   STEP       30

 LAYER ROW COL. STREAM  RCH.  FLOW INTO     FLOW TO   FLOW OUT OF   OVRLND.     DIRECT     STREAM       STREAM     STREAM     STREAM   STREAMBED  STREAMBED
                SEG.NO.  NO.  STRM. RCH.    AQUIFER    STRM. RCH.    RUNOFF     PRECIP       ET          HEAD       DEPTH      WIDTH   CONDCTNC.   GRADIENT

   1    1    1     1     1    9.9000E+01  4.7281E-01   9.8528E+01  0.000E+00  0.000E+00  0.000E+00  1.09484E+03  1.796E+00  2.191E+01  9.859E-02  1.599E+00
   1    2    2     1     2    9.8528E+01  7.3365E-01   9.7794E+01  0.000E+00  0.000E+00  0.000E+00  1.08985E+03  1.793E+00  2.187E+01  1.531E-01  1.598E+00
   1    3    3     1     3    9.7794E+01  6.2707E-01   9.7167E+01  0.000E+00  0.000E+00  0.000E+00  1.08421E+03  1.791E+00  2.181E+01  1.309E-01  1.597E+00
   1    3    4     1     4    9.7167E+01  5.7859E-01   9.6588E+01  0.000E+00  0.000E+00  0.000E+00  1.07920E+03  1.789E+00  2.177E+01  1.208E-01  1.596E+00
   1    4    5     2     1    9.4588E+01  4.4299E-01   9.4145E+01  0.000E+00  0.000E+00  0.000E+00  1.07461E+03  2.679E+00  1.200E+01  7.800E-02  1.893E+00
   1    5    6     2     2    9.4145E+01  3.4036E-01   9.3805E+01  0.000E+00  0.000E+00  0.000E+00  1.06918E+03  2.673E+00  1.200E+01  6.000E-02  1.891E+00
   1    6    6     2     3    9.3805E+01  3.4001E-01   9.3465E+01  0.000E+00  0.000E+00  0.000E+00  1.06446E+03  2.667E+00  1.200E+01  6.000E-02  1.889E+00
   1    7    6     2     4    9.3465E+01  3.3967E-01   9.3125E+01  0.000E+00  0.000E+00  0.000E+00  1.05974E+03  2.661E+00  1.200E+01  6.000E-02  1.887E+00
   1    8    6     2     5    9.3125E+01  3.3932E-01   9.2786E+01  0.000E+00  0.000E+00  0.000E+00  1.05501E+03  2.655E+00  1.200E+01  6.000E-02  1.885E+00
   1    3    5     3     1    2.0000E+00  2.8252E-01   1.7175E+00  0.000E+00  0.000E+00  0.000E+00  1.07555E+03  1.909E+00  9.636E+00  7.227E-02  1.955E+00
   1    3    6     3     2    1.7175E+00  2.4905E-01   1.4684E+00  0.000E+00  0.000E+00  0.000E+00  1.07264E+03  1.727E+00  8.909E+00  6.682E-02  1.864E+00
   1    3    7     3     3    1.4684E+00  1.9718E-01   1.2712E+00  0.000E+00  0.000E+00  0.000E+00  1.06987E+03  1.555E+00  8.218E+00  5.547E-02  1.777E+00
   1    4    8     3     4    1.2712E+00  2.2567E-01   1.0456E+00  0.000E+00  0.000E+00  0.000E+00  1.06682E+03  1.364E+00  7.455E+00  6.709E-02  1.682E+00
   1    5    8     3     5    1.0456E+00  1.5790E-01   8.8768E-01  0.000E+00  0.000E+00  0.000E+00  1.06362E+03  1.164E+00  6.655E+00  4.991E-02  1.582E+00
   1    6    8     3     6    8.8768E-01  5.5980E-02   8.3170E-01  0.000E+00  0.000E+00  0.000E+00  1.06158E+03  1.036E+00  6.145E+00  1.844E-02  1.518E+00
   1    5   10     4     1    1.0000E+01  9.0919E-02   9.9091E+00  0.000E+00  0.000E+00  0.000E+00  1.07836E+03  6.368E-01  1.000E+01  2.500E-02  1.212E+00
   1    5    9     4     2    9.9091E+00  1.8158E-01   9.7275E+00  0.000E+00  0.000E+00  0.000E+00  1.07154E+03  6.315E-01  1.000E+01  5.000E-02  1.211E+00
   1    6    8     4     3    9.7275E+00  1.2689E-01   9.6006E+00  0.000E+00  0.000E+00  0.000E+00  1.06381E+03  6.256E-01  1.000E+01  3.500E-02  1.209E+00
   1    6    8     5     1    1.0432E+01  2.2686E-01   1.0205E+01  0.000E+00  0.000E+00  0.000E+00  1.05868E+03  6.790E-01  1.542E+01  6.166E-02  1.226E+00
   1    7    7     5     2    1.0205E+01  2.7894E-01   9.9265E+00  0.000E+00  0.000E+00  0.000E+00  1.05417E+03  6.732E-01  1.519E+01  7.594E-02  1.224E+00
   1    8    7     5     3    9.9265E+00  1.9221E-01   9.7343E+00  0.000E+00  0.000E+00  0.000E+00  1.04992E+03  6.676E-01  1.497E+01  5.241E-02  1.223E+00
   1    8    6     5     4    9.7343E+00  1.3577E-01   9.5985E+00  0.000E+00  0.000E+00  0.000E+00  1.04691E+03  6.637E-01  1.482E+01  3.706E-02  1.221E+00
   1    9    6     6     1    1.0238E+02  3.5054E-01   1.0203E+02  0.000E+00  0.000E+00  0.000E+00  1.04557E+03  2.842E+00  1.200E+01  6.000E-02  1.947E+00
   1   10    7     6     2    1.0203E+02  3.5018E-01   1.0168E+02  0.000E+00  0.000E+00  0.000E+00  1.04102E+03  2.836E+00  1.200E+01  6.000E-02  1.945E+00
   1   11    7     6     3    1.0168E+02  3.4983E-01   1.0133E+02  0.000E+00  0.000E+00  0.000E+00  1.03647E+03  2.831E+00  1.200E+01  6.000E-02  1.944E+00
   1   12    7     6     4    1.0133E+02  3.4948E-01   1.0098E+02  0.000E+00  0.000E+00  0.000E+00  1.03192E+03  2.825E+00  1.200E+01  6.000E-02  1.942E+00
   1   13    7     6     5    1.0098E+02  3.7133E-02   1.0095E+02  0.000E+00  0.000E+00  0.000E+00  1.02873E+03  2.821E+00  1.200E+01  2.400E-02  5.157E-01
   1   14    9     7     1    1.5000E+02  1.3318E+00   1.4867E+02  0.000E+00  0.000E+00  0.000E+00  1.03987E+03  2.288E+00  5.529E+01  5.593E-01  7.937E-01
   1   13    8     7     2    1.4867E+02  1.8109E+00   1.4686E+02  0.000E+00  0.000E+00  0.000E+00  1.03478E+03  2.279E+00  5.526E+01  6.148E-01  9.818E-01
   1   13    7     7     3    1.4686E+02  1.4000E+00   1.4546E+02  0.000E+00  0.000E+00  0.000E+00  1.02969E+03  2.271E+00  5.522E+01  5.585E-01  8.356E-01
   1   13    6     8     1    2.4640E+02  1.1759E+00   2.4523E+02  0.000E+00  0.000E+00  0.000E+00  1.02527E+03  3.390E+00  4.916E+01  5.009E-01  7.825E-01
   1   13    5     8     2    2.4523E+02  3.1390E-01   2.4491E+02  0.000E+00  0.000E+00  0.000E+00  1.01901E+03  3.386E+00  4.910E+01  5.003E-01  2.091E-01
   1   13    4     8     3    2.4491E+02 -1.2834E+00   2.4620E+02  0.000E+00  0.000E+00  0.000E+00  1.01276E+03  3.389E+00  4.914E+01  5.007E+00 -8.544E-02
   1   13    3     8     4    2.4620E+02 -2.5294E+00   2.4873E+02  0.000E+00  0.000E+00  0.000E+00  1.00652E+03  3.399E+00  4.928E+01  5.022E+00 -1.679E-01
   1   13    2     8     5    2.4873E+02 -1.3027E+00   2.5003E+02  0.000E+00  0.000E+00  0.000E+00  1.00028E+03  3.408E+00  4.942E+01  5.036E+00 -8.622E-02
   1   13    1     8     6    2.5003E+02 -1.2942E+00   2.5132E+02  0.000E+00  0.000E+00  0.000E+00  9.95290E+02  3.415E+00  4.952E+01  3.028E+00 -1.425E-01





UNSATURATED ZONE PACKAGE VOLUMETRIC BUDGET FOR  TIME STEP    30 STRESS PERIOD    5
  ------------------------------------------------------------------------------



     CUMULATIVE VOLUMES      L**3       RATES FOR THIS TIME STEP      L**3/T
     ------------------                 ------------------------

           IN:                                      IN:
           ---                                      ---
        INFILTRATION =    54438644.1946          INFILTRATION =           7.8575

          OUT:                                     OUT:
          ----                                     ----
              UZF ET =    36952721.6550                UZF ET =           7.8575
        UZF RECHARGE =      388446.0629          UZF RECHARGE =       0.0000E+00

            IN - OUT =    17097476.4767              IN - OUT =      -1.6212E-05

          STORAGE:                                 STORAGE:
          --------                                 --------
      STORAGE CHANGE =    17098048.7214        STORAGE CHANGE =      -1.6130E-05

 PERCENT DISCREPANCY IS DIFFERENCE BETWEEN IN-OUT MINUS CHANGE IN STORAGE
 DIVIDED BY THE AVERAGE OF IN AND OUT TIMES 100

 PERCENT DISCREPANCY =          -0.00     PERCENT DISCREPANCY =           0.00






1
  VOLUMETRIC BUDGET FOR AGRICULTURAL FIELDS AT TIME STEP   30, STRESS PERIOD   5
  ------------------------------------------------------------------------------

     CUMULATIVE VOLUMES      L**3       RATES FOR THIS TIME STEP      L**3/T
     ------------------                 ------------------------

           IN:                                      IN:
           ---                                      ---
               AG WELLS  =     7998521.0000                 AG WELLS  =           3.4500
      DIVERSION SEGMENTS =           0.0000        DIVERSION SEGMENTS =           0.0000
           GW IRRIGATION =           0.0000             GW IRRIGATION =           0.0000
           SW IRRIGATION =           0.0000             SW IRRIGATION =           0.0000
        SYSTEM LOSSES GW =           0.0000          SYSTEM LOSSES GW =           0.0000
        SYSTEM LOSSES SW =           0.0000          SYSTEM LOSSES SW =           0.0000

                TOTAL IN =     7998521.0000                  TOTAL IN =           3.4500

          OUT:                                     OUT:
          ----                                     ----
               AG WELLS  =           0.0000                 AG WELLS  =           0.0000
      DIVERSION SEGMENTS =           0.0000        DIVERSION SEGMENTS =           0.0000
           GW IRRIGATION =     7998521.0000             GW IRRIGATION =           3.4500
           SW IRRIGATION =           0.0000             SW IRRIGATION =           0.0000
        SYSTEM LOSSES GW =           0.0000          SYSTEM LOSSES GW =           0.0000
        SYSTEM LOSSES SW =           0.0000          SYSTEM LOSSES SW =           0.0000

               TOTAL OUT =     7998521.0000                 TOTAL OUT =           3.4500

                IN - OUT =           0.0000                  IN - OUT =           0.0000

     PERCENT DISCREPANCY =           0.00         PERCENT DISCREPANCY =           0.00



1
  VOLUMETRIC BUDGET FOR ENTIRE MODEL AT END OF TIME STEP   30, STRESS PERIOD   5
  ------------------------------------------------------------------------------

     CUMULATIVE VOLUMES      L**3       RATES FOR THIS TIME STEP      L**3/T
     ------------------                 ------------------------

           IN:                                      IN:
           ---                                      ---
             STORAGE     =    16294431.0000               STORAGE     =           3.2146
       CONSTANT HEAD     =           0.0000         CONSTANT HEAD     =           0.0000
     HEAD DEP BOUNDS     =     3027432.2500       HEAD DEP BOUNDS     =           0.2855
      STREAM LEAKAGE     =   129794512.0000        STREAM LEAKAGE     =          14.0856
        UZF RECHARGE     =      388445.9375          UZF RECHARGE     =           0.0000
               GW ET     =           0.0000                 GW ET     =           0.0000
     SURFACE LEAKAGE     =           0.0000       SURFACE LEAKAGE     =           0.0000
           AG WELLS      =           0.0000             AG WELLS      =           0.0000

                TOTAL IN =   149504832.0000                  TOTAL IN =          17.5856

          OUT:                                     OUT:
          ----                                     ----
             STORAGE     =    26080614.0000               STORAGE     =           7.3785
       CONSTANT HEAD     =           0.0000         CONSTANT HEAD     =           0.0000
     HEAD DEP BOUNDS     =     3102195.2500       HEAD DEP BOUNDS     =           0.2933
      STREAM LEAKAGE     =   112171040.0000        STREAM LEAKAGE     =           6.4097
        UZF RECHARGE     =           0.0000          UZF RECHARGE     =           0.0000
               GW ET     =      156786.0156                 GW ET     =       5.3989E-02
     SURFACE LEAKAGE     =           0.0000       SURFACE LEAKAGE     =           0.0000
           AG WELLS      =     7998521.0000             AG WELLS      =           3.4500

               TOTAL OUT =   149509168.0000                 TOTAL OUT =          17.5855

                IN - OUT =       -4336.0000                  IN - OUT =       1.0872E-04

     PERCENT DISCREPANCY =          -0.00         PERCENT DISCREPANCY =           0.00






         TIME SUMMARY AT END OF TIME STEP   30 IN STRESS PERIOD    5
                    SECONDS     MINUTES      HOURS       DAYS        YEARS
                    -----------------------------------------------------------
   TIME STEP LENGTH  87667.      1461.1      24.352      1.0147     2.77799E-03
 STRESS PERIOD TIME 2.63000E+06  43833.      730.56      30.440     8.33397E-02
         TOTAL TIME 1.06064E+07 1.76773E+05  2946.2      122.76     0.33610    
1
1
                            STRESS PERIOD NO.    6, LENGTH =   2630000.    
                            -----------------------------------------------

                              NUMBER OF TIME STEPS =    30

                               MULTIPLIER FOR DELT =     1.000

                            INITIAL TIME STEP SIZE =   87666.66    

 REUSING NON-PARAMETER GHB CELLS FROM LAST STRESS PERIOD

      2 GHB CELLS

 REUSING STREAM SEGMENT DATA FROM LAST STRESS PERIOD



            AREAL INFILTRATION RATE
 READING ON UNIT   19 WITH FORMAT: (10F4.0)            

            1           2           3           4           5           6           7           8           9          10
 ........................................................................................................................
   1   1.2000E-09   0.000       0.000       0.000       0.000       0.000       0.000       0.000       0.000       0.000    
   2   2.1000E-09  2.0000E-09  8.0000E-10  8.5000E-09   0.000       0.000       0.000       0.000       0.000       0.000    
   3   5.0000E-10  1.1000E-09  8.8000E-09  5.5000E-09   0.000       0.000       0.000       0.000       0.000       0.000    
   4   8.5000E-09  1.1000E-09  1.1000E-09  1.1000E-09  2.0000E-09   0.000       0.000       0.000       0.000       0.000    
   5   8.5000E-09  1.1000E-09  1.1000E-09  1.1000E-09  1.1000E-09   0.000       0.000       0.000       0.000       0.000    
   6   8.5000E-09  5.2000E-09  2.1000E-09  1.1000E-09  1.5000E-09   0.000       0.000       0.000       0.000       0.000    
   7   8.5000E-09  5.2000E-09  2.1000E-09  1.2000E-09  2.0000E-09   0.000       0.000       0.000       0.000       0.000    
   8   5.0000E-10  5.2000E-09  2.1000E-09  1.2000E-09  5.0000E-09   0.000       0.000       0.000       0.000       0.000    
   9   5.0000E-10  5.2000E-09  2.1000E-09  1.2000E-09  5.0000E-09   0.000       0.000       0.000       0.000       0.000    
  10   5.0000E-10  5.2000E-09  2.1000E-09  1.2000E-09  5.8000E-09   0.000       0.000       0.000       0.000       0.000    
  11   1.0000E-10  1.1000E-09  1.1000E-09  1.2000E-09  5.0000E-09   0.000       0.000       0.000       0.000       0.000    
  12   1.1000E-09  1.1000E-09  1.1000E-09  1.1000E-09  2.0000E-09   0.000       0.000       0.000       0.000       0.000    
  13   1.1000E-09  2.2000E-09  2.2000E-09  2.1000E-09  1.0000E-09   0.000       0.000       0.000       0.000       0.000    
  14   2.0000E-10  5.5000E-09  5.5000E-09  5.2000E-09  1.0000E-09   0.000       0.000       0.000       0.000       0.000    
  15    0.000      8.8000E-09  8.8000E-09   0.000       0.000       0.000       0.000       0.000       0.000       0.000    

                  ET RATE =  5.000000E-08

 USING ET EXTINCTION DEPTH FROM PREVIOUS STRESS PERIOD. CURRENT PERIOD IS:       6

 USING EXTINCTION WATER CONTENT FROM PREVIOUS STRESS PERIOD. CURRENT PERIOD IS:       6

 USING AIR ENTRY PRESSURE FROM PREVIOUS STRESS PERIOD. CURRENT PERIOD IS:       6

 USING ROOT PRESSURE HEAD FROM PREVIOUS STRESS PERIOD. CURRENT PERIOD IS:       6

 USING ROOT ACTIVITY FROM PREVIOUS STRESS PERIOD. CURRENT PERIOD IS:       6

 PROCESSING AG STRESS PERIOD DATA

 READING AG STRESS PERIOD DATA

 READING IRRIGATION WELL

 END PROCESSING AG STRESS PERIOD DATA OPTIONS
 
 SOLVING FOR HEAD 
                                                   Max.-Head-Change                         Max.-Flux-Residual
  Residual-Control   Outer-Iter.   Inner-Iter.     Column Row Layer    Maximum-Head-Change  Column Row Layer    Maximum-Flux-Residual          L2-NORM 
          0                 1           2             2   13     1       0.2247239383E-01       4   13    1         0.1297102691E+01      0.3318794952E+01
          0                 2           2             5    8     1      -0.2831044187E-02       5    8    1        -0.1591519259E+00      0.3285908092E+00
          0                 3           2             5    8     1       0.2753830455E-03       5    8    1         0.1583399034E-01      0.2523719167E-01
          0                 4           1             5    8     1      -0.1875256836E-04       5    8    1        -0.1102868109E-02      0.1349367918E-02

    ------------------------------------------------
       NWT REQUIRED            4 OUTER ITERATIONS 
       AND A TOTAL OF          7 INNER ITERATIONS.
    ------------------------------------------------

 NO OUTPUT CONTROL FOR STRESS PERIOD    6   TIME STEP    1
 
 SOLVING FOR HEAD 
                                                   Max.-Head-Change                         Max.-Flux-Residual
  Residual-Control   Outer-Iter.   Inner-Iter.     Column Row Layer    Maximum-Head-Change  Column Row Layer    Maximum-Flux-Residual          L2-NORM 
          0                 1           2             2   13     1       0.2060772577E-01       2   13    1         0.1171391259E+01      0.3149553123E+01
          0                 2           2             5    8     1      -0.2701263632E-02       5    8    1        -0.1519691000E+00      0.3093020596E+00
          0                 3           2             5    8     1       0.2627589761E-03       5    8    1         0.1511636592E-01      0.2386104933E-01
          0                 4           1             5    8     1      -0.1789291565E-04       5    8    1        -0.1052678863E-02      0.1282082279E-02

    ------------------------------------------------
       NWT REQUIRED            4 OUTER ITERATIONS 
       AND A TOTAL OF          7 INNER ITERATIONS.
    ------------------------------------------------

 NO OUTPUT CONTROL FOR STRESS PERIOD    6   TIME STEP    2
 
 SOLVING FOR HEAD 
                                                   Max.-Head-Change                         Max.-Flux-Residual
  Residual-Control   Outer-Iter.   Inner-Iter.     Column Row Layer    Maximum-Head-Change  Column Row Layer    Maximum-Flux-Residual          L2-NORM 
          0                 1           2             4    7     1      -0.1965151957E-01       2   13    1         0.1074007456E+01      0.2994748499E+01
          0                 2           2             5    8     1      -0.2684512525E-02       5    8    1        -0.1510270852E+00      0.2947824267E+00
          0                 3           2             5    8     1       0.2611295531E-03       5    8    1         0.1502264349E-01      0.2298122363E-01
          0                 4           1             5    8     1      -0.1778195825E-04       5    8    1        -0.1046150817E-02      0.1254692942E-02

    ------------------------------------------------
       NWT REQUIRED            4 OUTER ITERATIONS 
       AND A TOTAL OF          7 INNER ITERATIONS.
    ------------------------------------------------

 NO OUTPUT CONTROL FOR STRESS PERIOD    6   TIME STEP    3
 
 SOLVING FOR HEAD 
                                                   Max.-Head-Change                         Max.-Flux-Residual
  Residual-Control   Outer-Iter.   Inner-Iter.     Column Row Layer    Maximum-Head-Change  Column Row Layer    Maximum-Flux-Residual          L2-NORM 
          0                 1           2             4    7     1      -0.1948722427E-01       4    7    1        -0.1020981788E+01      0.2859346066E+01
          0                 2           2             5    8     1      -0.2737524404E-02       5    8    1        -0.1539367410E+00      0.2844414311E+00
          0                 3           2             5    8     1       0.2662861443E-03       5    8    1         0.1531419967E-01      0.2249248753E-01
          0                 4           1             5    8     1      -0.1813310328E-04       5    8    1        -0.1066599970E-02      0.1253796946E-02

    ------------------------------------------------
       NWT REQUIRED            4 OUTER ITERATIONS 
       AND A TOTAL OF          7 INNER ITERATIONS.
    ------------------------------------------------

 NO OUTPUT CONTROL FOR STRESS PERIOD    6   TIME STEP    4
 
 SOLVING FOR HEAD 
                                                   Max.-Head-Change                         Max.-Flux-Residual
  Residual-Control   Outer-Iter.   Inner-Iter.     Column Row Layer    Maximum-Head-Change  Column Row Layer    Maximum-Flux-Residual          L2-NORM 
          0                 1           2             4    7     1      -0.1931978712E-01       4    7    1        -0.1012465230E+01      0.2742770745E+01
          0                 2           2             5    8     1      -0.2777207380E-02       5    8    1        -0.1561096355E+00      0.2756714049E+00
          0                 3           2             5    8     1       0.2701441003E-03       5    8    1         0.1553196500E-01      0.2207557454E-01
          0                 4           1             5    8     1      -0.1839581606E-04       5    8    1        -0.1081884030E-02      0.1252378446E-02

    ------------------------------------------------
       NWT REQUIRED            4 OUTER ITERATIONS 
       AND A TOTAL OF          7 INNER ITERATIONS.
    ------------------------------------------------

 NO OUTPUT CONTROL FOR STRESS PERIOD    6   TIME STEP    5
 
 SOLVING FOR HEAD 
                                                   Max.-Head-Change                         Max.-Flux-Residual
  Residual-Control   Outer-Iter.   Inner-Iter.     Column Row Layer    Maximum-Head-Change  Column Row Layer    Maximum-Flux-Residual          L2-NORM 
          0                 1           2             4    7     1      -0.1914906573E-01       4    7    1        -0.1003754154E+01      0.2641937559E+01
          0                 2           2             5    8     1      -0.2812810897E-02       5    8    1        -0.1580565999E+00      0.2683782644E+00
          0                 3           2             5    8     1       0.2736094373E-03       5    8    1         0.1572739018E-01      0.2173921936E-01
          0                 4           1             5    8     1      -0.1863179233E-04       5    8    1        -0.1095605242E-02      0.1251505012E-02

    ------------------------------------------------
       NWT REQUIRED            4 OUTER ITERATIONS 
       AND A TOTAL OF          7 INNER ITERATIONS.
    ------------------------------------------------

 NO OUTPUT CONTROL FOR STRESS PERIOD    6   TIME STEP    6
 
 SOLVING FOR HEAD 
                                                   Max.-Head-Change                         Max.-Flux-Residual
  Residual-Control   Outer-Iter.   Inner-Iter.     Column Row Layer    Maximum-Head-Change  Column Row Layer    Maximum-Flux-Residual          L2-NORM 
          0                 1           2             4    7     1      -0.1897577170E-01       4    7    1        -0.9948873191E+00      0.2554254198E+01
          0                 2           2             5    8     1      -0.2846673507E-02       5    8    1        -0.1599067995E+00      0.2623547036E+00
          0                 3           2             5    8     1       0.2769033329E-03       5    8    1         0.1591303635E-01      0.2147641366E-01
          0                 4           1             5    8     1      -0.1885609469E-04       5    8    1        -0.1108643084E-02      0.1252989577E-02

    ------------------------------------------------
       NWT REQUIRED            4 OUTER ITERATIONS 
       AND A TOTAL OF          7 INNER ITERATIONS.
    ------------------------------------------------

 NO OUTPUT CONTROL FOR STRESS PERIOD    6   TIME STEP    7
 
 SOLVING FOR HEAD 
                                                   Max.-Head-Change                         Max.-Flux-Residual
  Residual-Control   Outer-Iter.   Inner-Iter.     Column Row Layer    Maximum-Head-Change  Column Row Layer    Maximum-Flux-Residual          L2-NORM 
          0                 1           2             4    7     1      -0.1880002770E-01       4    7    1        -0.9858723978E+00      0.2477514144E+01
          0                 2           2             5    8     1      -0.2878882828E-02       5    8    1        -0.1616651453E+00      0.2573694281E+00
          0                 3           2             5    8     1       0.2800364085E-03       5    8    1         0.1608951171E-01      0.2127159946E-01
          0                 4           1             5    8     1      -0.1906944523E-04       5    8    1        -0.1121039934E-02      0.1255297197E-02

    ------------------------------------------------
       NWT REQUIRED            4 OUTER ITERATIONS 
       AND A TOTAL OF          7 INNER ITERATIONS.
    ------------------------------------------------

 NO OUTPUT CONTROL FOR STRESS PERIOD    6   TIME STEP    8
 
 SOLVING FOR HEAD 
                                                   Max.-Head-Change                         Max.-Flux-Residual
  Residual-Control   Outer-Iter.   Inner-Iter.     Column Row Layer    Maximum-Head-Change  Column Row Layer    Maximum-Flux-Residual          L2-NORM 
          0                 1           2             4    7     1      -0.1862249334E-01       4    7    1        -0.9767453824E+00      0.2409918066E+01
          0                 2           2             5    8     1      -0.2909579411E-02       5    8    1        -0.1633395383E+00      0.2532374020E+00
          0                 3           2             5    8     1       0.2830223365E-03       5    8    1         0.1625760239E-01      0.2111358130E-01
          0                 4           1             5    8     1      -0.1927277644E-04       5    8    1        -0.1132850594E-02      0.1258869618E-02

    ------------------------------------------------
       NWT REQUIRED            4 OUTER ITERATIONS 
       AND A TOTAL OF          7 INNER ITERATIONS.
    ------------------------------------------------

 NO OUTPUT CONTROL FOR STRESS PERIOD    6   TIME STEP    9
 
 SOLVING FOR HEAD 
                                                   Max.-Head-Change                         Max.-Flux-Residual
  Residual-Control   Outer-Iter.   Inner-Iter.     Column Row Layer    Maximum-Head-Change  Column Row Layer    Maximum-Flux-Residual          L2-NORM 
          0                 1           2             4    7     1      -0.1844350926E-01       4    7    1        -0.9675253131E+00      0.2349963422E+01
          0                 2           2             5    8     1      -0.2938826819E-02       5    8    1        -0.1649335765E+00      0.2498011658E+00
          0                 3           2             5    8     1       0.2858672996E-03       5    8    1         0.1641766562E-01      0.2099225313E-01
          0                 4           1             5    8     1      -0.1946650772E-04       5    8    1        -0.1144099850E-02      0.1262830804E-02

    ------------------------------------------------
       NWT REQUIRED            4 OUTER ITERATIONS 
       AND A TOTAL OF          7 INNER ITERATIONS.
    ------------------------------------------------

 NO OUTPUT CONTROL FOR STRESS PERIOD    6   TIME STEP   10
 
 SOLVING FOR HEAD 
                                                   Max.-Head-Change                         Max.-Flux-Residual
  Residual-Control   Outer-Iter.   Inner-Iter.     Column Row Layer    Maximum-Head-Change  Column Row Layer    Maximum-Flux-Residual          L2-NORM 
          0                 1           2             4    7     1      -0.1826339666E-01       4    7    1        -0.9582301862E+00      0.2296395244E+01
          0                 2           2             5    8     1      -0.2966725449E-02       5    8    1        -0.1664528191E+00      0.2469331146E+00
          0                 3           1             5    8     1       0.2885810659E-03       5    8    1         0.1657025705E-01      0.2089982321E-01
          0                 4           1             5    8     1      -0.1965130670E-04       5    8    1        -0.1154826633E-02      0.1267319030E-02

    ------------------------------------------------
       NWT REQUIRED            4 OUTER ITERATIONS 
       AND A TOTAL OF          6 INNER ITERATIONS.
    ------------------------------------------------

 NO OUTPUT CONTROL FOR STRESS PERIOD    6   TIME STEP   11
 
 SOLVING FOR HEAD 
                                                   Max.-Head-Change                         Max.-Flux-Residual
  Residual-Control   Outer-Iter.   Inner-Iter.     Column Row Layer    Maximum-Head-Change  Column Row Layer    Maximum-Flux-Residual          L2-NORM 
          0                 1           2             4    7     1      -0.1808218467E-01       4    7    1        -0.9488618498E+00      0.2248196165E+01
          0                 2           2             5    8     1      -0.2993360657E-02       5    8    1        -0.1679020917E+00      0.2445311917E+00
          0                 3           1             5    8     1       0.2911719345E-03       5    8    1         0.1671585598E-01      0.2083123765E-01
          0                 4           1             5    8     1      -0.1982773574E-04       5    8    1        -0.1165064239E-02      0.1272006387E-02

    ------------------------------------------------
       NWT REQUIRED            4 OUTER ITERATIONS 
       AND A TOTAL OF          6 INNER ITERATIONS.
    ------------------------------------------------

 NO OUTPUT CONTROL FOR STRESS PERIOD    6   TIME STEP   12
 
 SOLVING FOR HEAD 
                                                   Max.-Head-Change                         Max.-Flux-Residual
  Residual-Control   Outer-Iter.   Inner-Iter.     Column Row Layer    Maximum-Head-Change  Column Row Layer    Maximum-Flux-Residual          L2-NORM 
          0                 1           2             4    7     1      -0.1790042567E-01       4    7    1        -0.9394510985E+00      0.2204512061E+01
          0                 2           2             5    8     1      -0.3018839962E-02       5    8    1        -0.1692873221E+00      0.2425119886E+00
          0                 3           1             5    8     1       0.2936503646E-03       5    8    1         0.1685505554E-01      0.2078157018E-01
          0                 4           1             5    8     1      -0.1999650721E-04       5    8    1        -0.1174854187E-02      0.1276899283E-02

    ------------------------------------------------
       NWT REQUIRED            4 OUTER ITERATIONS 
       AND A TOTAL OF          6 INNER ITERATIONS.
    ------------------------------------------------

 NO OUTPUT CONTROL FOR STRESS PERIOD    6   TIME STEP   13
 
 SOLVING FOR HEAD 
                                                   Max.-Head-Change                         Max.-Flux-Residual
  Residual-Control   Outer-Iter.   Inner-Iter.     Column Row Layer    Maximum-Head-Change  Column Row Layer    Maximum-Flux-Residual          L2-NORM 
          0                 1           2             4    7     1      -0.1771810986E-01       4    7    1        -0.9299972905E+00      0.2164673943E+01
          0                 2           2             5    8     1      -0.3043180818E-02       5    8    1        -0.1706096326E+00      0.2408100044E+00
          0                 3           1             5    8     1       0.2960180562E-03       5    8    1         0.1698796334E-01      0.2074687396E-01
          0                 4           1             5    8     1      -0.2015773804E-04       5    8    1        -0.1184203740E-02      0.1281870912E-02

    ------------------------------------------------
       NWT REQUIRED            4 OUTER ITERATIONS 
       AND A TOTAL OF          6 INNER ITERATIONS.
    ------------------------------------------------

 NO OUTPUT CONTROL FOR STRESS PERIOD    6   TIME STEP   14
 
 SOLVING FOR HEAD 
                                                   Max.-Head-Change                         Max.-Flux-Residual
  Residual-Control   Outer-Iter.   Inner-Iter.     Column Row Layer    Maximum-Head-Change  Column Row Layer    Maximum-Flux-Residual          L2-NORM 
          0                 1           2             4    7     1      -0.1753603098E-01       4    7    1        -0.9205442420E+00      0.2128100187E+01
          0                 2           2             5    8     1      -0.3066476988E-02       5    8    1        -0.1718741664E+00      0.2393665630E+00
          0                 3           1             5    8     1       0.2982841279E-03       5    8    1         0.1711509478E-01      0.2072430698E-01
          0                 4           1             5    8     1      -0.2031204949E-04       5    8    1        -0.1193149043E-02      0.1287044064E-02

    ------------------------------------------------
       NWT REQUIRED            4 OUTER ITERATIONS 
       AND A TOTAL OF          6 INNER ITERATIONS.
    ------------------------------------------------

 NO OUTPUT CONTROL FOR STRESS PERIOD    6   TIME STEP   15
 
 SOLVING FOR HEAD 
                                                   Max.-Head-Change                         Max.-Flux-Residual
  Residual-Control   Outer-Iter.   Inner-Iter.     Column Row Layer    Maximum-Head-Change  Column Row Layer    Maximum-Flux-Residual          L2-NORM 
          0                 1           2             4    7     1      -0.1735356842E-01       4    7    1        -0.9110591437E+00      0.2094302295E+01
          0                 2           2             5    8     1      -0.3088809397E-02       5    8    1        -0.1730849387E+00      0.2381284497E+00
          0                 3           1             5    8     1       0.3004564203E-03       5    8    1         0.1723686518E-01      0.2071093620E-01
          0                 4           1             5    8     1      -0.2045997454E-04       5    8    1        -0.1201720039E-02      0.1292142958E-02

    ------------------------------------------------
       NWT REQUIRED            4 OUTER ITERATIONS 
       AND A TOTAL OF          6 INNER ITERATIONS.
    ------------------------------------------------

 NO OUTPUT CONTROL FOR STRESS PERIOD    6   TIME STEP   16
 
 SOLVING FOR HEAD 
                                                   Max.-Head-Change                         Max.-Flux-Residual
  Residual-Control   Outer-Iter.   Inner-Iter.     Column Row Layer    Maximum-Head-Change  Column Row Layer    Maximum-Flux-Residual          L2-NORM 
          0                 1           2             4    7     1      -0.1717177474E-01       4    7    1        -0.9015988226E+00      0.2062913437E+01
          0                 2           2             5    8     1      -0.3110187087E-02       5    8    1        -0.1742434508E+00      0.2370793281E+00
          0                 3           1             5    8     1       0.3025358772E-03       5    8    1         0.1735339453E-01      0.2070562847E-01
          0                 4           1             5    8     1      -0.2060157758E-04       5    8    1        -0.1209923186E-02      0.1297074061E-02

    ------------------------------------------------
       NWT REQUIRED            4 OUTER ITERATIONS 
       AND A TOTAL OF          6 INNER ITERATIONS.
    ------------------------------------------------

 NO OUTPUT CONTROL FOR STRESS PERIOD    6   TIME STEP   17
 
 SOLVING FOR HEAD 
                                                   Max.-Head-Change                         Max.-Flux-Residual
  Residual-Control   Outer-Iter.   Inner-Iter.     Column Row Layer    Maximum-Head-Change  Column Row Layer    Maximum-Flux-Residual          L2-NORM 
          0                 1           2             4    7     1      -0.1699026413E-01       4    7    1        -0.8921432139E+00      0.2033604555E+01
          0                 2           2             5    8     1      -0.3130705768E-02       5    8    1        -0.1753545854E+00      0.2361791104E+00
          0                 3           1             5    8     1       0.3045317764E-03       5    8    1         0.1746518336E-01      0.2070623708E-01
          0                 4           1             5    8     1      -0.2073749123E-04       5    8    1        -0.1217794323E-02      0.1302149125E-02

    ------------------------------------------------
       NWT REQUIRED            4 OUTER ITERATIONS 
       AND A TOTAL OF          6 INNER ITERATIONS.
    ------------------------------------------------

 NO OUTPUT CONTROL FOR STRESS PERIOD    6   TIME STEP   18
 
 SOLVING FOR HEAD 
                                                   Max.-Head-Change                         Max.-Flux-Residual
  Residual-Control   Outer-Iter.   Inner-Iter.     Column Row Layer    Maximum-Head-Change  Column Row Layer    Maximum-Flux-Residual          L2-NORM 
          0                 1           2             4    7     1      -0.1680948611E-01       4    7    1        -0.8827172242E+00      0.2006094005E+01
          0                 2           2             5    8     1      -0.3150417659E-02       5    8    1        -0.1764211878E+00      0.2354045203E+00
          0                 3           1             5    8     1       0.3064491974E-03       5    8    1         0.1757251740E-01      0.2071200521E-01
          0                 4           1             5    8     1      -0.2086806056E-04       5    8    1        -0.1225353502E-02      0.1307028699E-02

    ------------------------------------------------
       NWT REQUIRED            4 OUTER ITERATIONS 
       AND A TOTAL OF          6 INNER ITERATIONS.
    ------------------------------------------------

 NO OUTPUT CONTROL FOR STRESS PERIOD    6   TIME STEP   19
 
 SOLVING FOR HEAD 
                                                   Max.-Head-Change                         Max.-Flux-Residual
  Residual-Control   Outer-Iter.   Inner-Iter.     Column Row Layer    Maximum-Head-Change  Column Row Layer    Maximum-Flux-Residual          L2-NORM 
          0                 1           2             4    7     1      -0.1662933032E-01       4    7    1        -0.8733141730E+00      0.1980192227E+01
          0                 2           2             5    8     1      -0.3169339086E-02       5    8    1        -0.1774442628E+00      0.2347361208E+00
          0                 3           1             5    8     1       0.3082876278E-03       5    8    1         0.1767537484E-01      0.2072177849E-01
          0                 4           1             5    8     1      -0.2099325125E-04       5    8    1        -0.1232599017E-02      0.1311908558E-02

    ------------------------------------------------
       NWT REQUIRED            4 OUTER ITERATIONS 
       AND A TOTAL OF          6 INNER ITERATIONS.
    ------------------------------------------------

 NO OUTPUT CONTROL FOR STRESS PERIOD    6   TIME STEP   20
 
 SOLVING FOR HEAD 
                                                   Max.-Head-Change                         Max.-Flux-Residual
  Residual-Control   Outer-Iter.   Inner-Iter.     Column Row Layer    Maximum-Head-Change  Column Row Layer    Maximum-Flux-Residual          L2-NORM 
          0                 1           2             4    7     1      -0.1645020389E-01       4    7    1        -0.8639583142E+00      0.1955658582E+01
          0                 2           2             5    8     1      -0.3187524998E-02       5    8    1        -0.1784267715E+00      0.2341542619E+00
          0                 3           1             5    8     1       0.3100587133E-03       5    8    1         0.1777441171E-01      0.2073453834E-01
          0                 4           1             5    8     1      -0.2111385522E-04       5    8    1        -0.1239576906E-02      0.1316571829E-02

    ------------------------------------------------
       NWT REQUIRED            4 OUTER ITERATIONS 
       AND A TOTAL OF          6 INNER ITERATIONS.
    ------------------------------------------------

 NO OUTPUT CONTROL FOR STRESS PERIOD    6   TIME STEP   21
 
 SOLVING FOR HEAD 
                                                   Max.-Head-Change                         Max.-Flux-Residual
  Residual-Control   Outer-Iter.   Inner-Iter.     Column Row Layer    Maximum-Head-Change  Column Row Layer    Maximum-Flux-Residual          L2-NORM 
          0                 1           2             4    7     1      -0.1627224524E-01       4    7    1        -0.8546559523E+00      0.1932391138E+01
          0                 2           2             5    8     1      -0.3205037784E-02       5    8    1        -0.1793722641E+00      0.2336504902E+00
          0                 3           1             5    8     1       0.3117622222E-03       5    8    1         0.1786962232E-01      0.2075002132E-01
          0                 4           1             5    8     1      -0.2122985826E-04       5    8    1        -0.1246286611E-02      0.1321179862E-02

    ------------------------------------------------
       NWT REQUIRED            4 OUTER ITERATIONS 
       AND A TOTAL OF          6 INNER ITERATIONS.
    ------------------------------------------------

 NO OUTPUT CONTROL FOR STRESS PERIOD    6   TIME STEP   22
 
 SOLVING FOR HEAD 
                                                   Max.-Head-Change                         Max.-Flux-Residual
  Residual-Control   Outer-Iter.   Inner-Iter.     Column Row Layer    Maximum-Head-Change  Column Row Layer    Maximum-Flux-Residual          L2-NORM 
          0                 1           2             4    7     1      -0.1609528870E-01       4    7    1        -0.8453990861E+00      0.1910216531E+01
          0                 2           2             5    8     1      -0.3221891065E-02       5    8    1        -0.1802814478E+00      0.2332104050E+00
          0                 3           1             5    8     1       0.3134015795E-03       5    8    1         0.1796119796E-01      0.2076747446E-01
          0                 4           1             5    8     1      -0.2134149231E-04       5    8    1        -0.1252741578E-02      0.1325776251E-02

    ------------------------------------------------
       NWT REQUIRED            4 OUTER ITERATIONS 
       AND A TOTAL OF          6 INNER ITERATIONS.
    ------------------------------------------------

 NO OUTPUT CONTROL FOR STRESS PERIOD    6   TIME STEP   23
 
 SOLVING FOR HEAD 
                                                   Max.-Head-Change                         Max.-Flux-Residual
  Residual-Control   Outer-Iter.   Inner-Iter.     Column Row Layer    Maximum-Head-Change  Column Row Layer    Maximum-Flux-Residual          L2-NORM 
          0                 1           2             4    7     1      -0.1591972467E-01       4    7    1        -0.8362091160E+00      0.1889040583E+01
          0                 2           2             5    8     1      -0.3238124618E-02       5    8    1        -0.1811565621E+00      0.2328255521E+00
          0                 3           1             5    8     1       0.3149806544E-03       5    8    1         0.1804936134E-01      0.2078624649E-01
          0                 4           1             5    8     1      -0.2144902197E-04       5    8    1        -0.1258957328E-02      0.1330109097E-02

    ------------------------------------------------
       NWT REQUIRED            4 OUTER ITERATIONS 
       AND A TOTAL OF          6 INNER ITERATIONS.
    ------------------------------------------------

 NO OUTPUT CONTROL FOR STRESS PERIOD    6   TIME STEP   24
 
 SOLVING FOR HEAD 
                                                   Max.-Head-Change                         Max.-Flux-Residual
  Residual-Control   Outer-Iter.   Inner-Iter.     Column Row Layer    Maximum-Head-Change  Column Row Layer    Maximum-Flux-Residual          L2-NORM 
          0                 1           2             4    7     1      -0.1574564472E-01       4    7    1        -0.8270914586E+00      0.1868758756E+01
          0                 2           2             5    8     1      -0.3253799250E-02       5    8    1        -0.1820009627E+00      0.2324898649E+00
          0                 3           1             5    8     1       0.3165053615E-03       5    8    1         0.1813444818E-01      0.2080674283E-01
          0                 4           1             5    8     1      -0.2155284864E-04       5    8    1        -0.1264957362E-02      0.1334492952E-02

    ------------------------------------------------
       NWT REQUIRED            4 OUTER ITERATIONS 
       AND A TOTAL OF          6 INNER ITERATIONS.
    ------------------------------------------------

 NO OUTPUT CONTROL FOR STRESS PERIOD    6   TIME STEP   25
 
 SOLVING FOR HEAD 
                                                   Max.-Head-Change                         Max.-Flux-Residual
  Residual-Control   Outer-Iter.   Inner-Iter.     Column Row Layer    Maximum-Head-Change  Column Row Layer    Maximum-Flux-Residual          L2-NORM 
          0                 1           2             4    7     1      -0.1557285706E-01       4    7    1        -0.8180357163E+00      0.1849292462E+01
          0                 2           2             5    8     1      -0.3268886648E-02       5    8    1        -0.1828130894E+00      0.2321929481E+00
          0                 3           1             5    8     1       0.3179729466E-03       5    8    1         0.1821630233E-01      0.2082750339E-01
          0                 4           1             5    8     1      -0.2165278558E-04       5    8    1        -0.1270730728E-02      0.1338644084E-02

    ------------------------------------------------
       NWT REQUIRED            4 OUTER ITERATIONS 
       AND A TOTAL OF          6 INNER ITERATIONS.
    ------------------------------------------------

 NO OUTPUT CONTROL FOR STRESS PERIOD    6   TIME STEP   26
 
 SOLVING FOR HEAD 
                                                   Max.-Head-Change                         Max.-Flux-Residual
  Residual-Control   Outer-Iter.   Inner-Iter.     Column Row Layer    Maximum-Head-Change  Column Row Layer    Maximum-Flux-Residual          L2-NORM 
          0                 1           2             4    7     1      -0.1540171376E-01       4    7    1        -0.8090618960E+00      0.1830569257E+01
          0                 2           2             5    8     1      -0.3283482024E-02       5    8    1        -0.1835982290E+00      0.2319342217E+00
          0                 3           1             5    8     1       0.3193926730E-03       5    8    1         0.1829545173E-01      0.2084946823E-01
          0                 4           1             5    8     1      -0.2174946425E-04       5    8    1        -0.1276314389E-02      0.1342805310E-02

    ------------------------------------------------
       NWT REQUIRED            4 OUTER ITERATIONS 
       AND A TOTAL OF          6 INNER ITERATIONS.
    ------------------------------------------------

 NO OUTPUT CONTROL FOR STRESS PERIOD    6   TIME STEP   27
 
 SOLVING FOR HEAD 
                                                   Max.-Head-Change                         Max.-Flux-Residual
  Residual-Control   Outer-Iter.   Inner-Iter.     Column Row Layer    Maximum-Head-Change  Column Row Layer    Maximum-Flux-Residual          L2-NORM 
          0                 1           2             4    7     1      -0.1523228893E-01       4    7    1        -0.8001733454E+00      0.1812530307E+01
          0                 2           2             5    8     1      -0.3297580797E-02       5    8    1        -0.1843561686E+00      0.2317068240E+00
          0                 3           1             5    8     1       0.3207640930E-03       5    8    1         0.1837187385E-01      0.2087167923E-01
          0                 4           1             5    8     1      -0.2184285292E-04       5    8    1        -0.1281706625E-02      0.1346660114E-02

    ------------------------------------------------
       NWT REQUIRED            4 OUTER ITERATIONS 
       AND A TOTAL OF          6 INNER ITERATIONS.
    ------------------------------------------------

 NO OUTPUT CONTROL FOR STRESS PERIOD    6   TIME STEP   28
 
 SOLVING FOR HEAD 
                                                   Max.-Head-Change                         Max.-Flux-Residual
  Residual-Control   Outer-Iter.   Inner-Iter.     Column Row Layer    Maximum-Head-Change  Column Row Layer    Maximum-Flux-Residual          L2-NORM 
          0                 1           2             4    7     1      -0.1506463377E-01       4    7    1        -0.7913740122E+00      0.1795110929E+01
          0                 2           2             5    8     1      -0.3311210833E-02       5    8    1        -0.1850883613E+00      0.2315066926E+00
          0                 3           1             5    8     1       0.3220899177E-03       5    8    1         0.1844571662E-01      0.2089454625E-01
          0                 4           1             5    8     1      -0.2193313667E-04       5    8    1        -0.1286917991E-02      0.1350595877E-02

    ------------------------------------------------
       NWT REQUIRED            4 OUTER ITERATIONS 
       AND A TOTAL OF          6 INNER ITERATIONS.
    ------------------------------------------------

 NO OUTPUT CONTROL FOR STRESS PERIOD    6   TIME STEP   29
 
 SOLVING FOR HEAD 
                                                   Max.-Head-Change                         Max.-Flux-Residual
  Residual-Control   Outer-Iter.   Inner-Iter.     Column Row Layer    Maximum-Head-Change  Column Row Layer    Maximum-Flux-Residual          L2-NORM 
          0                 1           2             4    7     1      -0.1489855065E-01       4    7    1        -0.7826513934E+00      0.1763616472E+01
          0                 2           2             5    8     1      -0.3324213219E-02       5    8    1        -0.1857963210E+00      0.2302354875E+00
          0                 3           1             5    8     1       0.3233546906E-03       5    8    1         0.1851682263E-01      0.2086037204E-01
          0                 4           1             5    8     1      -0.2201926302E-04       5    8    1        -0.1291916484E-02      0.1352960361E-02

    ------------------------------------------------
       NWT REQUIRED            4 OUTER ITERATIONS 
       AND A TOTAL OF          6 INNER ITERATIONS.
    ------------------------------------------------

 NO OUTPUT CONTROL FOR STRESS PERIOD    6   TIME STEP   30



 STREAM LISTING     PERIOD      6   STEP       30

 LAYER ROW COL. STREAM  RCH.  FLOW INTO     FLOW TO   FLOW OUT OF   OVRLND.     DIRECT     STREAM       STREAM     STREAM     STREAM   STREAMBED  STREAMBED
                SEG.NO.  NO.  STRM. RCH.    AQUIFER    STRM. RCH.    RUNOFF     PRECIP       ET          HEAD       DEPTH      WIDTH   CONDCTNC.   GRADIENT

   1    1    1     1     1    9.2355E+01  4.5966E-01   9.1895E+01  0.000E+00  0.000E+00  0.000E+00  1.09482E+03  1.771E+00  2.141E+01  9.635E-02  1.590E+00
   1    2    2     1     2    9.1895E+01  7.1318E-01   9.1182E+01  0.000E+00  0.000E+00  0.000E+00  1.08983E+03  1.769E+00  2.136E+01  1.496E-01  1.590E+00
   1    3    3     1     3    9.1182E+01  6.0950E-01   9.0573E+01  0.000E+00  0.000E+00  0.000E+00  1.08418E+03  1.766E+00  2.131E+01  1.279E-01  1.589E+00
   1    3    4     1     4    9.0573E+01  5.6231E-01   9.0010E+01  0.000E+00  0.000E+00  0.000E+00  1.07917E+03  1.764E+00  2.127E+01  1.180E-01  1.588E+00
   1    4    5     2     1    8.8010E+01  4.3413E-01   8.7576E+01  0.000E+00  0.000E+00  0.000E+00  1.07450E+03  2.566E+00  1.200E+01  7.800E-02  1.855E+00
   1    5    6     2     2    8.7576E+01  3.3354E-01   8.7243E+01  0.000E+00  0.000E+00  0.000E+00  1.06907E+03  2.559E+00  1.200E+01  6.000E-02  1.853E+00
   1    6    6     2     3    8.7243E+01  3.3319E-01   8.6909E+01  0.000E+00  0.000E+00  0.000E+00  1.06435E+03  2.553E+00  1.200E+01  6.000E-02  1.851E+00
   1    7    6     2     4    8.6909E+01  3.3284E-01   8.6576E+01  0.000E+00  0.000E+00  0.000E+00  1.05962E+03  2.547E+00  1.200E+01  6.000E-02  1.849E+00
   1    8    6     2     5    8.6576E+01  3.3249E-01   8.6244E+01  0.000E+00  0.000E+00  0.000E+00  1.05490E+03  2.541E+00  1.200E+01  6.000E-02  1.847E+00
   1    3    5     3     1    2.0000E+00  2.8252E-01   1.7175E+00  0.000E+00  0.000E+00  0.000E+00  1.07555E+03  1.909E+00  9.636E+00  7.227E-02  1.955E+00
   1    3    6     3     2    1.7175E+00  2.4905E-01   1.4684E+00  0.000E+00  0.000E+00  0.000E+00  1.07264E+03  1.727E+00  8.909E+00  6.682E-02  1.864E+00
   1    3    7     3     3    1.4684E+00  1.9718E-01   1.2712E+00  0.000E+00  0.000E+00  0.000E+00  1.06987E+03  1.555E+00  8.218E+00  5.547E-02  1.777E+00
   1    4    8     3     4    1.2712E+00  2.2567E-01   1.0456E+00  0.000E+00  0.000E+00  0.000E+00  1.06682E+03  1.364E+00  7.455E+00  6.709E-02  1.682E+00
   1    5    8     3     5    1.0456E+00  1.5790E-01   8.8768E-01  0.000E+00  0.000E+00  0.000E+00  1.06362E+03  1.164E+00  6.655E+00  4.991E-02  1.582E+00
   1    6    8     3     6    8.8768E-01  5.5980E-02   8.3170E-01  0.000E+00  0.000E+00  0.000E+00  1.06158E+03  1.036E+00  6.145E+00  1.844E-02  1.518E+00
   1    5   10     4     1    1.0000E+01  9.0919E-02   9.9091E+00  0.000E+00  0.000E+00  0.000E+00  1.07836E+03  6.368E-01  1.000E+01  2.500E-02  1.212E+00
   1    5    9     4     2    9.9091E+00  1.8158E-01   9.7275E+00  0.000E+00  0.000E+00  0.000E+00  1.07154E+03  6.315E-01  1.000E+01  5.000E-02  1.211E+00
   1    6    8     4     3    9.7275E+00  1.2689E-01   9.6006E+00  0.000E+00  0.000E+00  0.000E+00  1.06381E+03  6.256E-01  1.000E+01  3.500E-02  1.209E+00
   1    6    8     5     1    1.0432E+01  2.2686E-01   1.0205E+01  0.000E+00  0.000E+00  0.000E+00  1.05868E+03  6.790E-01  1.542E+01  6.166E-02  1.226E+00
   1    7    7     5     2    1.0205E+01  2.7894E-01   9.9265E+00  0.000E+00  0.000E+00  0.000E+00  1.05417E+03  6.732E-01  1.519E+01  7.594E-02  1.224E+00
   1    8    7     5     3    9.9265E+00  1.9221E-01   9.7343E+00  0.000E+00  0.000E+00  0.000E+00  1.04992E+03  6.676E-01  1.497E+01  5.241E-02  1.223E+00
   1    8    6     5     4    9.7343E+00  1.3577E-01   9.5985E+00  0.000E+00  0.000E+00  0.000E+00  1.04691E+03  6.637E-01  1.482E+01  3.706E-02  1.221E+00
   1    9    6     6     1    9.5843E+01  3.4390E-01   9.5499E+01  0.000E+00  0.000E+00  0.000E+00  1.04546E+03  2.732E+00  1.200E+01  6.000E-02  1.911E+00
   1   10    7     6     2    9.5499E+01  3.4355E-01   9.5155E+01  0.000E+00  0.000E+00  0.000E+00  1.04091E+03  2.726E+00  1.200E+01  6.000E-02  1.909E+00
   1   11    7     6     3    9.5155E+01  3.4320E-01   9.4812E+01  0.000E+00  0.000E+00  0.000E+00  1.03636E+03  2.720E+00  1.200E+01  6.000E-02  1.907E+00
   1   12    7     6     4    9.4812E+01  3.4284E-01   9.4469E+01  0.000E+00  0.000E+00  0.000E+00  1.03180E+03  2.714E+00  1.200E+01  6.000E-02  1.905E+00
   1   13    7     6     5    9.4469E+01  3.3803E-02   9.4435E+01  0.000E+00  0.000E+00  0.000E+00  1.02862E+03  2.711E+00  1.200E+01  2.400E-02  4.695E-01
   1   14    9     7     1    1.5000E+02  1.3319E+00   1.4867E+02  0.000E+00  0.000E+00  0.000E+00  1.03987E+03  2.288E+00  5.529E+01  5.593E-01  7.938E-01
   1   13    8     7     2    1.4867E+02  1.8070E+00   1.4686E+02  0.000E+00  0.000E+00  0.000E+00  1.03478E+03  2.279E+00  5.526E+01  6.148E-01  9.797E-01
   1   13    7     7     3    1.4686E+02  1.3843E+00   1.4548E+02  0.000E+00  0.000E+00  0.000E+00  1.02969E+03  2.271E+00  5.522E+01  5.585E-01  8.263E-01
   1   13    6     8     1    2.3991E+02  1.1019E+00   2.3881E+02  0.000E+00  0.000E+00  0.000E+00  1.02523E+03  3.356E+00  4.867E+01  4.959E-01  7.406E-01
   1   13    5     8     2    2.3881E+02  2.5222E-01   2.3856E+02  0.000E+00  0.000E+00  0.000E+00  1.01898E+03  3.353E+00  4.862E+01  4.954E-01  1.697E-01
   1   13    4     8     3    2.3856E+02 -2.1643E+00   2.4072E+02  0.000E+00  0.000E+00  0.000E+00  1.01273E+03  3.358E+00  4.869E+01  4.962E+00 -1.454E-01
   1   13    3     8     4    2.4072E+02 -3.3690E+00   2.4409E+02  0.000E+00  0.000E+00  0.000E+00  1.00650E+03  3.372E+00  4.890E+01  4.983E+00 -2.254E-01
   1   13    2     8     5    2.4409E+02 -2.5234E+00   2.4661E+02  0.000E+00  0.000E+00  0.000E+00  1.00026E+03  3.388E+00  4.912E+01  5.006E+00 -1.680E-01
   1   13    1     8     6    2.4661E+02 -1.8907E+00   2.4851E+02  0.000E+00  0.000E+00  0.000E+00  9.95274E+02  3.399E+00  4.929E+01  3.013E+00 -2.091E-01





UNSATURATED ZONE PACKAGE VOLUMETRIC BUDGET FOR  TIME STEP    30 STRESS PERIOD    6
  ------------------------------------------------------------------------------



     CUMULATIVE VOLUMES      L**3       RATES FOR THIS TIME STEP      L**3/T
     ------------------                 ------------------------

           IN:                                      IN:
           ---                                      ---
        INFILTRATION =    84959872.5403          INFILTRATION =          11.6075

          OUT:                                     OUT:
          ----                                     ----
              UZF ET =    67480445.6804                UZF ET =          11.6075
        UZF RECHARGE =      388459.6891          UZF RECHARGE =       0.0000E+00

            IN - OUT =    17090967.1708              IN - OUT =      -2.8610E-06

          STORAGE:                                 STORAGE:
          --------                                 --------
      STORAGE CHANGE =    17091539.5638        STORAGE CHANGE =      -2.5385E-06

 PERCENT DISCREPANCY IS DIFFERENCE BETWEEN IN-OUT MINUS CHANGE IN STORAGE
 DIVIDED BY THE AVERAGE OF IN AND OUT TIMES 100

 PERCENT DISCREPANCY =          -0.00     PERCENT DISCREPANCY =           0.00






1
  VOLUMETRIC BUDGET FOR AGRICULTURAL FIELDS AT TIME STEP   30, STRESS PERIOD   6
  ------------------------------------------------------------------------------

     CUMULATIVE VOLUMES      L**3       RATES FOR THIS TIME STEP      L**3/T
     ------------------                 ------------------------

           IN:                                      IN:
           ---                                      ---
               AG WELLS  =    26928028.0000                 AG WELLS  =           7.2000
      DIVERSION SEGMENTS =           0.0000        DIVERSION SEGMENTS =           0.0000
           GW IRRIGATION =           0.0000             GW IRRIGATION =           0.0000
           SW IRRIGATION =           0.0000             SW IRRIGATION =           0.0000
        SYSTEM LOSSES GW =           0.0000          SYSTEM LOSSES GW =           0.0000
        SYSTEM LOSSES SW =           0.0000          SYSTEM LOSSES SW =           0.0000

                TOTAL IN =    26928028.0000                  TOTAL IN =           7.2000

          OUT:                                     OUT:
          ----                                     ----
               AG WELLS  =           0.0000                 AG WELLS  =           0.0000
      DIVERSION SEGMENTS =           0.0000        DIVERSION SEGMENTS =           0.0000
           GW IRRIGATION =    26928028.0000             GW IRRIGATION =           7.2000
           SW IRRIGATION =           0.0000             SW IRRIGATION =           0.0000
        SYSTEM LOSSES GW =           0.0000          SYSTEM LOSSES GW =           0.0000
        SYSTEM LOSSES SW =           0.0000          SYSTEM LOSSES SW =           0.0000

               TOTAL OUT =    26928028.0000                 TOTAL OUT =           7.2000

                IN - OUT =           0.0000                  IN - OUT =           0.0000

     PERCENT DISCREPANCY =           0.00         PERCENT DISCREPANCY =           0.00



1
  VOLUMETRIC BUDGET FOR ENTIRE MODEL AT END OF TIME STEP   30, STRESS PERIOD   6
  ------------------------------------------------------------------------------

     CUMULATIVE VOLUMES      L**3       RATES FOR THIS TIME STEP      L**3/T
     ------------------                 ------------------------

           IN:                                      IN:
           ---                                      ---
             STORAGE     =    34020428.0000               STORAGE     =           6.7767
       CONSTANT HEAD     =           0.0000         CONSTANT HEAD     =           0.0000
     HEAD DEP BOUNDS     =     3778269.5000       HEAD DEP BOUNDS     =           0.2855
      STREAM LEAKAGE     =   166664176.0000        STREAM LEAKAGE     =          13.7969
        UZF RECHARGE     =      388459.5938          UZF RECHARGE     =           0.0000
               GW ET     =           0.0000                 GW ET     =           0.0000
     SURFACE LEAKAGE     =           0.0000       SURFACE LEAKAGE     =           0.0000
           AG WELLS      =           0.0000             AG WELLS      =           0.0000

                TOTAL IN =   204851344.0000                  TOTAL IN =          20.8591

          OUT:                                     OUT:
          ----                                     ----
             STORAGE     =    37158612.0000               STORAGE     =           2.5919
       CONSTANT HEAD     =           0.0000         CONSTANT HEAD     =           0.0000
     HEAD DEP BOUNDS     =     3885266.7500       HEAD DEP BOUNDS     =           0.3003
      STREAM LEAKAGE     =   134971648.0000        STREAM LEAKAGE     =           9.9474
        UZF RECHARGE     =           0.0000          UZF RECHARGE     =           0.0000
               GW ET     =     1912032.8750                 GW ET     =           0.8195
     SURFACE LEAKAGE     =           0.0000       SURFACE LEAKAGE     =           0.0000
           AG WELLS      =    26928028.0000             AG WELLS      =           7.2000

               TOTAL OUT =   204855584.0000                 TOTAL OUT =          20.8590

                IN - OUT =       -4240.0000                  IN - OUT =       4.5776E-05

     PERCENT DISCREPANCY =          -0.00         PERCENT DISCREPANCY =           0.00






         TIME SUMMARY AT END OF TIME STEP   30 IN STRESS PERIOD    6
                    SECONDS     MINUTES      HOURS       DAYS        YEARS
                    -----------------------------------------------------------
   TIME STEP LENGTH  87667.      1461.1      24.352      1.0147     2.77799E-03
 STRESS PERIOD TIME 2.63000E+06  43833.      730.56      30.440     8.33397E-02
         TOTAL TIME 1.32364E+07 2.20607E+05  3676.8      153.20     0.41944    
1
1
                            STRESS PERIOD NO.    7, LENGTH =   2630000.    
                            -----------------------------------------------

                              NUMBER OF TIME STEPS =    30

                               MULTIPLIER FOR DELT =     1.000

                            INITIAL TIME STEP SIZE =   87666.66    

 REUSING NON-PARAMETER GHB CELLS FROM LAST STRESS PERIOD

      2 GHB CELLS

 REUSING STREAM SEGMENT DATA FROM LAST STRESS PERIOD



            AREAL INFILTRATION RATE
 READING ON UNIT   19 WITH FORMAT: (10F4.0)            

            1           2           3           4           5           6           7           8           9          10
 ........................................................................................................................
   1   1.2000E-09   0.000       0.000       0.000       0.000       0.000       0.000       0.000       0.000       0.000    
   2   2.1000E-09  2.0000E-09  8.0000E-10  8.5000E-09   0.000       0.000       0.000       0.000       0.000       0.000    
   3   5.0000E-10  1.1000E-09  8.8000E-09  5.5000E-09   0.000       0.000       0.000       0.000       0.000       0.000    
   4   8.5000E-09  1.1000E-09  1.1000E-09  1.1000E-09  2.0000E-09   0.000       0.000       0.000       0.000       0.000    
   5   8.5000E-09  1.1000E-09  1.1000E-09  1.1000E-09  1.1000E-09   0.000       0.000       0.000       0.000       0.000    
   6   8.5000E-09  5.2000E-09  2.1000E-09  1.1000E-09  1.5000E-09   0.000       0.000       0.000       0.000       0.000    
   7   8.5000E-09  5.2000E-09  2.1000E-09  1.2000E-09  2.0000E-09   0.000       0.000       0.000       0.000       0.000    
   8   5.0000E-10  5.2000E-09  2.1000E-09  1.2000E-09  5.0000E-09   0.000       0.000       0.000       0.000       0.000    
   9   5.0000E-10  5.2000E-09  2.1000E-09  1.2000E-09  5.0000E-09   0.000       0.000       0.000       0.000       0.000    
  10   5.0000E-10  5.2000E-09  2.1000E-09  1.2000E-09  5.8000E-09   0.000       0.000       0.000       0.000       0.000    
  11   1.0000E-10  1.1000E-09  1.1000E-09  1.2000E-09  5.0000E-09   0.000       0.000       0.000       0.000       0.000    
  12   1.1000E-09  1.1000E-09  1.1000E-09  1.1000E-09  2.0000E-09   0.000       0.000       0.000       0.000       0.000    
  13   1.1000E-09  2.2000E-09  2.2000E-09  2.1000E-09  1.0000E-09   0.000       0.000       0.000       0.000       0.000    
  14   2.0000E-10  5.5000E-09  5.5000E-09  5.2000E-09  1.0000E-09   0.000       0.000       0.000       0.000       0.000    
  15    0.000      8.8000E-09  8.8000E-09   0.000       0.000       0.000       0.000       0.000       0.000       0.000    

                  ET RATE =  1.500000E-07

 USING ET EXTINCTION DEPTH FROM PREVIOUS STRESS PERIOD. CURRENT PERIOD IS:       7

 USING EXTINCTION WATER CONTENT FROM PREVIOUS STRESS PERIOD. CURRENT PERIOD IS:       7

 USING AIR ENTRY PRESSURE FROM PREVIOUS STRESS PERIOD. CURRENT PERIOD IS:       7

 USING ROOT PRESSURE HEAD FROM PREVIOUS STRESS PERIOD. CURRENT PERIOD IS:       7

 USING ROOT ACTIVITY FROM PREVIOUS STRESS PERIOD. CURRENT PERIOD IS:       7

 PROCESSING AG STRESS PERIOD DATA

 READING AG STRESS PERIOD DATA

 READING IRRIGATION WELL

 END PROCESSING AG STRESS PERIOD DATA OPTIONS
 
 SOLVING FOR HEAD 
                                                   Max.-Head-Change                         Max.-Flux-Residual
  Residual-Control   Outer-Iter.   Inner-Iter.     Column Row Layer    Maximum-Head-Change  Column Row Layer    Maximum-Flux-Residual          L2-NORM 
          0                 1           2             4    7     1      -0.6261509131E-01       4    7    1        -0.3274040140E+01      0.7803494090E+01
          0                 2           2             5    7     1       0.5791893380E-02       5    7    1         0.3168395927E+00      0.7162324839E+00
          0                 3           2             5    7     1      -0.3944115834E-03       5    7    1        -0.2217907621E-01      0.5007746484E-01
          0                 4           1             5    7     1       0.1568986914E-04       5    7    1         0.9068867892E-03      0.2044231891E-02

    ------------------------------------------------
       NWT REQUIRED            4 OUTER ITERATIONS 
       AND A TOTAL OF          7 INNER ITERATIONS.
    ------------------------------------------------

 NO OUTPUT CONTROL FOR STRESS PERIOD    7   TIME STEP    1
 
 SOLVING FOR HEAD 
                                                   Max.-Head-Change                         Max.-Flux-Residual
  Residual-Control   Outer-Iter.   Inner-Iter.     Column Row Layer    Maximum-Head-Change  Column Row Layer    Maximum-Flux-Residual          L2-NORM 
          0                 1           2             4    7     1      -0.6222823976E-01       4    7    1        -0.3254116552E+01      0.7686884906E+01
          0                 2           2             5    7     1       0.5712091787E-02       5    7    1         0.3122269255E+00      0.7061791844E+00
          0                 3           2             5    7     1      -0.3889773424E-03       5    7    1        -0.2185618606E-01      0.4939225385E-01
          0                 4           1             5    7     1       0.1547369865E-04       5    7    1         0.8936805739E-03      0.2017238012E-02

    ------------------------------------------------
       NWT REQUIRED            4 OUTER ITERATIONS 
       AND A TOTAL OF          7 INNER ITERATIONS.
    ------------------------------------------------

 NO OUTPUT CONTROL FOR STRESS PERIOD    7   TIME STEP    2
 
 SOLVING FOR HEAD 
                                                   Max.-Head-Change                         Max.-Flux-Residual
  Residual-Control   Outer-Iter.   Inner-Iter.     Column Row Layer    Maximum-Head-Change  Column Row Layer    Maximum-Flux-Residual          L2-NORM 
          0                 1           2             4    7     1      -0.6179407062E-01       4    7    1        -0.3232473142E+01      0.7534003832E+01
          0                 2           2             5    7     1       0.5629769439E-02       5    7    1         0.3078259455E+00      0.6903834127E+00
          0                 3           2             5    7     1      -0.3833715114E-03       5    7    1        -0.2154811839E-01      0.4829889232E-01
          0                 4           1             5    7     1       0.1525070270E-04       5    7    1         0.8810806030E-03      0.1973618093E-02

    ------------------------------------------------
       NWT REQUIRED            4 OUTER ITERATIONS 
       AND A TOTAL OF          7 INNER ITERATIONS.
    ------------------------------------------------

 NO OUTPUT CONTROL FOR STRESS PERIOD    7   TIME STEP    3
 
 SOLVING FOR HEAD 
                                                   Max.-Head-Change                         Max.-Flux-Residual
  Residual-Control   Outer-Iter.   Inner-Iter.     Column Row Layer    Maximum-Head-Change  Column Row Layer    Maximum-Flux-Residual          L2-NORM 
          0                 1           2             4    7     1      -0.6134388317E-01       4    7    1        -0.3209902524E+01      0.7398629192E+01
          0                 2           2             5    7     1       0.5549876644E-02       5    7    1         0.3034934560E+00      0.6773916630E+00
          0                 3           2             5    7     1      -0.3779310458E-03       5    7    1        -0.2124484412E-01      0.4739805227E-01
          0                 4           1             5    7     1       0.1503428377E-04       5    7    1         0.8686766644E-03      0.1937310152E-02

    ------------------------------------------------
       NWT REQUIRED            4 OUTER ITERATIONS 
       AND A TOTAL OF          7 INNER ITERATIONS.
    ------------------------------------------------

 NO OUTPUT CONTROL FOR STRESS PERIOD    7   TIME STEP    4
 
 SOLVING FOR HEAD 
                                                   Max.-Head-Change                         Max.-Flux-Residual
  Residual-Control   Outer-Iter.   Inner-Iter.     Column Row Layer    Maximum-Head-Change  Column Row Layer    Maximum-Flux-Residual          L2-NORM 
          0                 1           2             4    7     1      -0.6087966312E-01       4    7    1        -0.3186515550E+01      0.7276406026E+01
          0                 2           2             5    7     1       0.5471301104E-02       5    7    1         0.2992263817E+00      0.6657687432E+00
          0                 3           2             5    7     1      -0.3725803427E-03       5    7    1        -0.2094614877E-01      0.4659055331E-01
          0                 4           1             5    7     1       0.1482137438E-04       5    7    1         0.8564600139E-03      0.1904656010E-02

    ------------------------------------------------
       NWT REQUIRED            4 OUTER ITERATIONS 
       AND A TOTAL OF          7 INNER ITERATIONS.
    ------------------------------------------------

 OUTPUT CONTROL FOR STRESS PERIOD    7   TIME STEP    5
    PRINT BUDGET
    SAVE BUDGET
 UBDSV1 SAVING "         STORAGE" ON UNIT 102 AT TIME STEP  5, STRESS PERIOD   7
 UBDSV2 SAVING "   CONSTANT HEAD" ON UNIT 102 AT TIME STEP  5, STRESS PERIOD   7
 UBDSV1 SAVING "FLOW RIGHT FACE " ON UNIT 102 AT TIME STEP  5, STRESS PERIOD   7
 UBDSV1 SAVING "FLOW FRONT FACE " ON UNIT 102 AT TIME STEP  5, STRESS PERIOD   7

  HEAD DEP BOUNDS   PERIOD    7   STEP     5
 BOUNDARY      1   LAYER   1   ROW    13   COL     1   RATE   -0.300151    
 BOUNDARY      2   LAYER   1   ROW    14   COL     9   RATE    0.285491    



 STREAM LISTING     PERIOD      7   STEP        5

 LAYER ROW COL. STREAM  RCH.  FLOW INTO     FLOW TO   FLOW OUT OF   OVRLND.     DIRECT     STREAM       STREAM     STREAM     STREAM   STREAMBED  STREAMBED
                SEG.NO.  NO.  STRM. RCH.    AQUIFER    STRM. RCH.    RUNOFF     PRECIP       ET          HEAD       DEPTH      WIDTH   CONDCTNC.   GRADIENT

   1    1    1     1     1    8.3000E+01  4.4019E-01   8.2560E+01  0.000E+00  0.000E+00  0.000E+00  1.09478E+03  1.734E+00  2.066E+01  9.299E-02  1.578E+00
   1    2    2     1     2    8.2560E+01  6.8286E-01   8.1877E+01  0.000E+00  0.000E+00  0.000E+00  1.08979E+03  1.731E+00  2.062E+01  1.443E-01  1.577E+00
   1    3    3     1     3    8.1877E+01  5.8349E-01   8.1294E+01  0.000E+00  0.000E+00  0.000E+00  1.08415E+03  1.729E+00  2.057E+01  1.234E-01  1.576E+00
   1    3    4     1     4    8.1294E+01  5.3822E-01   8.0756E+01  0.000E+00  0.000E+00  0.000E+00  1.07913E+03  1.726E+00  2.052E+01  1.139E-01  1.575E+00
   1    4    5     2     1    7.8756E+01  4.2120E-01   7.8334E+01  0.000E+00  0.000E+00  0.000E+00  1.07433E+03  2.400E+00  1.200E+01  7.800E-02  1.800E+00
   1    5    6     2     2    7.8334E+01  3.2359E-01   7.8011E+01  0.000E+00  0.000E+00  0.000E+00  1.06890E+03  2.393E+00  1.200E+01  6.000E-02  1.798E+00
   1    6    6     2     3    7.8011E+01  3.2323E-01   7.7688E+01  0.000E+00  0.000E+00  0.000E+00  1.06418E+03  2.387E+00  1.200E+01  6.000E-02  1.796E+00
   1    7    6     2     4    7.7688E+01  3.2288E-01   7.7365E+01  0.000E+00  0.000E+00  0.000E+00  1.05946E+03  2.381E+00  1.200E+01  6.000E-02  1.794E+00
   1    8    6     2     5    7.7365E+01  3.2252E-01   7.7042E+01  0.000E+00  0.000E+00  0.000E+00  1.05473E+03  2.375E+00  1.200E+01  6.000E-02  1.792E+00
   1    3    5     3     1    2.0000E+00  2.8252E-01   1.7175E+00  0.000E+00  0.000E+00  0.000E+00  1.07555E+03  1.909E+00  9.636E+00  7.227E-02  1.955E+00
   1    3    6     3     2    1.7175E+00  2.4905E-01   1.4684E+00  0.000E+00  0.000E+00  0.000E+00  1.07264E+03  1.727E+00  8.909E+00  6.682E-02  1.864E+00
   1    3    7     3     3    1.4684E+00  1.9718E-01   1.2712E+00  0.000E+00  0.000E+00  0.000E+00  1.06987E+03  1.555E+00  8.218E+00  5.547E-02  1.777E+00
   1    4    8     3     4    1.2712E+00  2.2567E-01   1.0456E+00  0.000E+00  0.000E+00  0.000E+00  1.06682E+03  1.364E+00  7.455E+00  6.709E-02  1.682E+00
   1    5    8     3     5    1.0456E+00  1.5790E-01   8.8768E-01  0.000E+00  0.000E+00  0.000E+00  1.06362E+03  1.164E+00  6.655E+00  4.991E-02  1.582E+00
   1    6    8     3     6    8.8768E-01  5.5980E-02   8.3170E-01  0.000E+00  0.000E+00  0.000E+00  1.06158E+03  1.036E+00  6.145E+00  1.844E-02  1.518E+00
   1    5   10     4     1    1.0000E+01  9.0919E-02   9.9091E+00  0.000E+00  0.000E+00  0.000E+00  1.07836E+03  6.368E-01  1.000E+01  2.500E-02  1.212E+00
   1    5    9     4     2    9.9091E+00  1.8158E-01   9.7275E+00  0.000E+00  0.000E+00  0.000E+00  1.07154E+03  6.315E-01  1.000E+01  5.000E-02  1.211E+00
   1    6    8     4     3    9.7275E+00  1.2689E-01   9.6006E+00  0.000E+00  0.000E+00  0.000E+00  1.06381E+03  6.256E-01  1.000E+01  3.500E-02  1.209E+00
   1    6    8     5     1    1.0432E+01  2.2686E-01   1.0205E+01  0.000E+00  0.000E+00  0.000E+00  1.05868E+03  6.790E-01  1.542E+01  6.166E-02  1.226E+00
   1    7    7     5     2    1.0205E+01  2.7894E-01   9.9265E+00  0.000E+00  0.000E+00  0.000E+00  1.05417E+03  6.732E-01  1.519E+01  7.594E-02  1.224E+00
   1    8    7     5     3    9.9265E+00  1.9221E-01   9.7343E+00  0.000E+00  0.000E+00  0.000E+00  1.04992E+03  6.676E-01  1.497E+01  5.241E-02  1.223E+00
   1    8    6     5     4    9.7343E+00  1.3577E-01   9.5985E+00  0.000E+00  0.000E+00  0.000E+00  1.04691E+03  6.637E-01  1.482E+01  3.706E-02  1.221E+00
   1    9    6     6     1    8.6641E+01  3.3426E-01   8.6306E+01  0.000E+00  0.000E+00  0.000E+00  1.04530E+03  2.571E+00  1.200E+01  6.000E-02  1.857E+00
   1   10    7     6     2    8.6306E+01  3.3390E-01   8.5973E+01  0.000E+00  0.000E+00  0.000E+00  1.04075E+03  2.565E+00  1.200E+01  6.000E-02  1.855E+00
   1   11    7     6     3    8.5973E+01  3.3354E-01   8.5639E+01  0.000E+00  0.000E+00  0.000E+00  1.03620E+03  2.559E+00  1.200E+01  6.000E-02  1.853E+00
   1   12    7     6     4    8.5639E+01  3.3319E-01   8.5306E+01  0.000E+00  0.000E+00  0.000E+00  1.03164E+03  2.553E+00  1.200E+01  6.000E-02  1.851E+00
   1   13    7     6     5    8.5306E+01  2.9841E-02   8.5276E+01  0.000E+00  0.000E+00  0.000E+00  1.02846E+03  2.550E+00  1.200E+01  2.400E-02  4.145E-01
   1   14    9     7     1    1.5000E+02  1.3319E+00   1.4867E+02  0.000E+00  0.000E+00  0.000E+00  1.03987E+03  2.288E+00  5.529E+01  5.593E-01  7.938E-01
   1   13    8     7     2    1.4867E+02  1.8062E+00   1.4686E+02  0.000E+00  0.000E+00  0.000E+00  1.03478E+03  2.279E+00  5.526E+01  6.148E-01  9.793E-01
   1   13    7     7     3    1.4686E+02  1.3820E+00   1.4548E+02  0.000E+00  0.000E+00  0.000E+00  1.02969E+03  2.271E+00  5.522E+01  5.585E-01  8.249E-01
   1   13    6     8     1    2.3076E+02  1.0599E+00   2.2970E+02  0.000E+00  0.000E+00  0.000E+00  1.02518E+03  3.308E+00  4.796E+01  4.888E-01  7.229E-01
   1   13    5     8     2    2.2970E+02  2.2325E-01   2.2947E+02  0.000E+00  0.000E+00  0.000E+00  1.01893E+03  3.304E+00  4.791E+01  4.882E-01  1.524E-01
   1   13    4     8     3    2.2947E+02 -2.1043E+00   2.3158E+02  0.000E+00  0.000E+00  0.000E+00  1.01268E+03  3.309E+00  4.799E+01  4.890E+00 -1.434E-01
   1   13    3     8     4    2.3158E+02 -3.2881E+00   2.3487E+02  0.000E+00  0.000E+00  0.000E+00  1.00645E+03  3.324E+00  4.820E+01  4.911E+00 -2.232E-01
   1   13    2     8     5    2.3487E+02 -2.6437E+00   2.3751E+02  0.000E+00  0.000E+00  0.000E+00  1.00021E+03  3.340E+00  4.842E+01  4.935E+00 -1.786E-01
   1   13    1     8     6    2.3751E+02 -1.9964E+00   2.3951E+02  0.000E+00  0.000E+00  0.000E+00  9.95227E+02  3.352E+00  4.860E+01  2.972E+00 -2.239E-01



 UBDSV3 SAVING "           GW ET" ON UNIT  61 AT TIME STEP  5, STRESS PERIOD   7
 UBDSV3 SAVING "    UZF RECHARGE" ON UNIT  61 AT TIME STEP  5, STRESS PERIOD   7
 UBDSV3 SAVING " SURFACE LEAKAGE" ON UNIT  61 AT TIME STEP  5, STRESS PERIOD   7
 UBDSV3 SAVING "       HORT+DUNN" ON UNIT  61 AT TIME STEP  5, STRESS PERIOD   7
 UBDSV3 SAVING "  STORAGE CHANGE" ON UNIT  61 AT TIME STEP  5, STRESS PERIOD   7


UNSATURATED ZONE PACKAGE VOLUMETRIC BUDGET FOR  TIME STEP     5 STRESS PERIOD    7
  ------------------------------------------------------------------------------



     CUMULATIVE VOLUMES      L**3       RATES FOR THIS TIME STEP      L**3/T
     ------------------                 ------------------------

           IN:                                      IN:
           ---                                      ---
        INFILTRATION =    96609131.1682          INFILTRATION =          26.6074

          OUT:                                     OUT:
          ----                                     ----
              UZF ET =    79143400.7458                UZF ET =          26.6075
        UZF RECHARGE =      388459.6891          UZF RECHARGE =       0.0000E+00

            IN - OUT =    17077270.7333              IN - OUT =      -1.4186E-04

          STORAGE:                                 STORAGE:
          --------                                 --------
      STORAGE CHANGE =    17077843.0964        STORAGE CHANGE =      -1.4188E-04

 PERCENT DISCREPANCY IS DIFFERENCE BETWEEN IN-OUT MINUS CHANGE IN STORAGE
 DIVIDED BY THE AVERAGE OF IN AND OUT TIMES 100

 PERCENT DISCREPANCY =          -0.00     PERCENT DISCREPANCY =           0.00






 

            AG WELLS      PERIOD    7   STEP   5
 AG WELL      1   LAYER   1   ROW     6   COL     4   RATE    -3.72250    
 AG WELL      2   LAYER   1   ROW     6   COL     5   RATE    -3.71250    
 AG WELL      3   LAYER   1   ROW     7   COL     4   RATE    -3.72000    
 AG WELL      4   LAYER   1   ROW     7   COL     5   RATE    -3.69986    
 AG WELL      5   LAYER   1   ROW     8   COL     4   RATE    -3.72000    
 AG WELL      6   LAYER   1   ROW     8   COL     5   RATE    -3.62500    
 
 

        GW IRRIGATION     PERIOD    7   STEP   5
 AG WELL      1   ROW     6   COL     4   RATE     3.72250    
 AG WELL      2   ROW     6   COL     5   RATE     3.71250    
 AG WELL      3   ROW     7   COL     4   RATE     3.72000    
 AG WELL      4   ROW     7   COL     5   RATE     3.69986    
 AG WELL      5   ROW     8   COL     4   RATE     3.72000    
 AG WELL      6   ROW     8   COL     5   RATE     3.62500    
 
1
  VOLUMETRIC BUDGET FOR AGRICULTURAL FIELDS AT TIME STEP    5, STRESS PERIOD   7
  ------------------------------------------------------------------------------

     CUMULATIVE VOLUMES      L**3       RATES FOR THIS TIME STEP      L**3/T
     ------------------                 ------------------------

           IN:                                      IN:
           ---                                      ---
               AG WELLS  =    36645332.0000                 AG WELLS  =          22.1999
      DIVERSION SEGMENTS =           0.0000        DIVERSION SEGMENTS =           0.0000
           GW IRRIGATION =           0.0000             GW IRRIGATION =           0.0000
           SW IRRIGATION =           0.0000             SW IRRIGATION =           0.0000
        SYSTEM LOSSES GW =           0.0000          SYSTEM LOSSES GW =           0.0000
        SYSTEM LOSSES SW =           0.0000          SYSTEM LOSSES SW =           0.0000

                TOTAL IN =    36645332.0000                  TOTAL IN =          22.1999

          OUT:                                     OUT:
          ----                                     ----
               AG WELLS  =           0.0000                 AG WELLS  =           0.0000
      DIVERSION SEGMENTS =           0.0000        DIVERSION SEGMENTS =           0.0000
           GW IRRIGATION =    36645332.0000             GW IRRIGATION =          22.1999
           SW IRRIGATION =           0.0000             SW IRRIGATION =           0.0000
        SYSTEM LOSSES GW =           0.0000          SYSTEM LOSSES GW =           0.0000
        SYSTEM LOSSES SW =           0.0000          SYSTEM LOSSES SW =           0.0000

               TOTAL OUT =    36645332.0000                 TOTAL OUT =          22.1999

                IN - OUT =           0.0000                  IN - OUT =           0.0000

     PERCENT DISCREPANCY =           0.00         PERCENT DISCREPANCY =           0.00



1
  VOLUMETRIC BUDGET FOR ENTIRE MODEL AT END OF TIME STEP    5, STRESS PERIOD   7
  ------------------------------------------------------------------------------

     CUMULATIVE VOLUMES      L**3       RATES FOR THIS TIME STEP      L**3/T
     ------------------                 ------------------------

           IN:                                      IN:
           ---                                      ---
             STORAGE     =    44114340.0000               STORAGE     =          22.5362
       CONSTANT HEAD     =           0.0000         CONSTANT HEAD     =           0.0000
     HEAD DEP BOUNDS     =     3903409.5000       HEAD DEP BOUNDS     =           0.2855
      STREAM LEAKAGE     =   172594944.0000        STREAM LEAKAGE     =          13.5277
        UZF RECHARGE     =      388459.5938          UZF RECHARGE     =           0.0000
               GW ET     =           0.0000                 GW ET     =           0.0000
     SURFACE LEAKAGE     =           0.0000       SURFACE LEAKAGE     =           0.0000
           AG WELLS      =           0.0000             AG WELLS      =           0.0000

                TOTAL IN =   221001152.0000                  TOTAL IN =          36.3494

          OUT:                                     OUT:
          ----                                     ----
             STORAGE     =    38109744.0000               STORAGE     =           2.0941
       CONSTANT HEAD     =           0.0000         CONSTANT HEAD     =           0.0000
     HEAD DEP BOUNDS     =     4016852.0000       HEAD DEP BOUNDS     =           0.3002
      STREAM LEAKAGE     =   139454128.0000        STREAM LEAKAGE     =          10.0326
        UZF RECHARGE     =           0.0000          UZF RECHARGE     =           0.0000
               GW ET     =     2779393.7500                 GW ET     =           1.7228
     SURFACE LEAKAGE     =           0.0000       SURFACE LEAKAGE     =           0.0000
           AG WELLS      =    36645332.0000             AG WELLS      =          22.1999

               TOTAL OUT =   221005440.0000                 TOTAL OUT =          36.3495

                IN - OUT =       -4288.0000                  IN - OUT =      -6.4850E-05

     PERCENT DISCREPANCY =          -0.00         PERCENT DISCREPANCY =          -0.00






         TIME SUMMARY AT END OF TIME STEP    5 IN STRESS PERIOD    7
                    SECONDS     MINUTES      HOURS       DAYS        YEARS
                    -----------------------------------------------------------
   TIME STEP LENGTH  87667.      1461.1      24.352      1.0147     2.77799E-03
 STRESS PERIOD TIME 4.38333E+05  7305.6      121.76      5.0733     1.38899E-02
         TOTAL TIME 1.36747E+07 2.27912E+05  3798.5      158.27     0.43333    
1
 
 SOLVING FOR HEAD 
                                                   Max.-Head-Change                         Max.-Flux-Residual
  Residual-Control   Outer-Iter.   Inner-Iter.     Column Row Layer    Maximum-Head-Change  Column Row Layer    Maximum-Flux-Residual          L2-NORM 
          0                 1           2             4    7     1      -0.6040273938E-01       4    7    1        -0.3162386390E+01      0.7164206876E+01
          0                 2           2             5    7     1       0.5394027439E-02       5    7    1         0.2950261225E+00      0.6551650336E+00
          0                 3           2             5    7     1      -0.3673182878E-03       5    7    1        -0.2065213037E-01      0.4585226146E-01
          0                 4           1             5    7     1       0.1461199274E-04       5    7    1         0.8444346363E-03      0.1874516141E-02

    ------------------------------------------------
       NWT REQUIRED            4 OUTER ITERATIONS 
       AND A TOTAL OF          7 INNER ITERATIONS.
    ------------------------------------------------

 NO OUTPUT CONTROL FOR STRESS PERIOD    7   TIME STEP    6
 
 SOLVING FOR HEAD 
                                                   Max.-Head-Change                         Max.-Flux-Residual
  Residual-Control   Outer-Iter.   Inner-Iter.     Column Row Layer    Maximum-Head-Change  Column Row Layer    Maximum-Flux-Residual          L2-NORM 
          0                 1           2             4    7     1      -0.5991490253E-01       4    7    1        -0.3137612891E+01      0.7059901599E+01
          0                 2           2             4    7     1       0.5324395732E-02       5    7    1         0.2908985430E+00      0.6453577913E+00
          0                 3           2             4    7     1      -0.3625719653E-03       5    7    1        -0.2036319944E-01      0.4516860688E-01
          0                 4           1             4    7     1       0.1442701377E-04       5    7    1         0.8326173490E-03      0.1846922901E-02

    ------------------------------------------------
       NWT REQUIRED            4 OUTER ITERATIONS 
       AND A TOTAL OF          7 INNER ITERATIONS.
    ------------------------------------------------

 NO OUTPUT CONTROL FOR STRESS PERIOD    7   TIME STEP    7
 
 SOLVING FOR HEAD 
                                                   Max.-Head-Change                         Max.-Flux-Residual
  Residual-Control   Outer-Iter.   Inner-Iter.     Column Row Layer    Maximum-Head-Change  Column Row Layer    Maximum-Flux-Residual          L2-NORM 
          0                 1           2             4    7     1      -0.5941729103E-01       4    7    1        -0.3112258995E+01      0.6961953042E+01
          0                 2           2             4    7     1       0.5275989108E-02       5    7    1         0.2868437852E+00      0.6361870173E+00
          0                 3           2             4    7     1      -0.3592756640E-03       5    7    1        -0.2007936596E-01      0.4452857482E-01
          0                 4           1             4    7     1       0.1429585073E-04       5    7    1         0.8210085459E-03      0.1820848536E-02

    ------------------------------------------------
       NWT REQUIRED            4 OUTER ITERATIONS 
       AND A TOTAL OF          7 INNER ITERATIONS.
    ------------------------------------------------

 NO OUTPUT CONTROL FOR STRESS PERIOD    7   TIME STEP    8
 
 SOLVING FOR HEAD 
                                                   Max.-Head-Change                         Max.-Flux-Residual
  Residual-Control   Outer-Iter.   Inner-Iter.     Column Row Layer    Maximum-Head-Change  Column Row Layer    Maximum-Flux-Residual          L2-NORM 
          0                 1           2             4    7     1      -0.5891124143E-01       4    7    1        -0.3086398300E+01      0.6869291725E+01
          0                 2           2             4    7     1       0.5226761883E-02       5    7    1         0.2828647840E+00      0.6275416172E+00
          0                 3           2             4    7     1      -0.3559234818E-03       5    7    1        -0.1980083534E-01      0.4392473701E-01
          0                 4           1             4    7     1       0.1416246436E-04       5    7    1         0.8096166193E-03      0.1796201344E-02

    ------------------------------------------------
       NWT REQUIRED            4 OUTER ITERATIONS 
       AND A TOTAL OF          7 INNER ITERATIONS.
    ------------------------------------------------

 NO OUTPUT CONTROL FOR STRESS PERIOD    7   TIME STEP    9
 
 SOLVING FOR HEAD 
                                                   Max.-Head-Change                         Max.-Flux-Residual
  Residual-Control   Outer-Iter.   Inner-Iter.     Column Row Layer    Maximum-Head-Change  Column Row Layer    Maximum-Flux-Residual          L2-NORM 
          0                 1           2             4    7     1      -0.5839826011E-01       4    7    1        -0.3060115138E+01      0.6781133695E+01
          0                 2           2             4    7     1       0.5176869194E-02       5    7    1         0.2789590182E+00      0.6193404716E+00
          0                 3           2             4    7     1      -0.3525301776E-03       5    7    1        -0.1952743117E-01      0.4335189905E-01
          0                 4           1             4    7     1       0.1402744133E-04       5    7    1         0.7984343979E-03      0.1772845151E-02

    ------------------------------------------------
       NWT REQUIRED            4 OUTER ITERATIONS 
       AND A TOTAL OF          7 INNER ITERATIONS.
    ------------------------------------------------

 OUTPUT CONTROL FOR STRESS PERIOD    7   TIME STEP   10
    PRINT BUDGET
    SAVE BUDGET
 UBDSV1 SAVING "         STORAGE" ON UNIT 102 AT TIME STEP 10, STRESS PERIOD   7
 UBDSV2 SAVING "   CONSTANT HEAD" ON UNIT 102 AT TIME STEP 10, STRESS PERIOD   7
 UBDSV1 SAVING "FLOW RIGHT FACE " ON UNIT 102 AT TIME STEP 10, STRESS PERIOD   7
 UBDSV1 SAVING "FLOW FRONT FACE " ON UNIT 102 AT TIME STEP 10, STRESS PERIOD   7

  HEAD DEP BOUNDS   PERIOD    7   STEP    10
 BOUNDARY      1   LAYER   1   ROW    13   COL     1   RATE   -0.300048    
 BOUNDARY      2   LAYER   1   ROW    14   COL     9   RATE    0.285490    



 STREAM LISTING     PERIOD      7   STEP       10

 LAYER ROW COL. STREAM  RCH.  FLOW INTO     FLOW TO   FLOW OUT OF   OVRLND.     DIRECT     STREAM       STREAM     STREAM     STREAM   STREAMBED  STREAMBED
                SEG.NO.  NO.  STRM. RCH.    AQUIFER    STRM. RCH.    RUNOFF     PRECIP       ET          HEAD       DEPTH      WIDTH   CONDCTNC.   GRADIENT

   1    1    1     1     1    8.3000E+01  4.4019E-01   8.2560E+01  0.000E+00  0.000E+00  0.000E+00  1.09478E+03  1.734E+00  2.066E+01  9.299E-02  1.578E+00
   1    2    2     1     2    8.2560E+01  6.8286E-01   8.1877E+01  0.000E+00  0.000E+00  0.000E+00  1.08979E+03  1.731E+00  2.062E+01  1.443E-01  1.577E+00
   1    3    3     1     3    8.1877E+01  5.8349E-01   8.1294E+01  0.000E+00  0.000E+00  0.000E+00  1.08415E+03  1.729E+00  2.057E+01  1.234E-01  1.576E+00
   1    3    4     1     4    8.1294E+01  5.3822E-01   8.0756E+01  0.000E+00  0.000E+00  0.000E+00  1.07913E+03  1.726E+00  2.052E+01  1.139E-01  1.575E+00
   1    4    5     2     1    7.8756E+01  4.2120E-01   7.8334E+01  0.000E+00  0.000E+00  0.000E+00  1.07433E+03  2.400E+00  1.200E+01  7.800E-02  1.800E+00
   1    5    6     2     2    7.8334E+01  3.2359E-01   7.8011E+01  0.000E+00  0.000E+00  0.000E+00  1.06890E+03  2.393E+00  1.200E+01  6.000E-02  1.798E+00
   1    6    6     2     3    7.8011E+01  3.2323E-01   7.7688E+01  0.000E+00  0.000E+00  0.000E+00  1.06418E+03  2.387E+00  1.200E+01  6.000E-02  1.796E+00
   1    7    6     2     4    7.7688E+01  3.2288E-01   7.7365E+01  0.000E+00  0.000E+00  0.000E+00  1.05946E+03  2.381E+00  1.200E+01  6.000E-02  1.794E+00
   1    8    6     2     5    7.7365E+01  3.2252E-01   7.7042E+01  0.000E+00  0.000E+00  0.000E+00  1.05473E+03  2.375E+00  1.200E+01  6.000E-02  1.792E+00
   1    3    5     3     1    2.0000E+00  2.8252E-01   1.7175E+00  0.000E+00  0.000E+00  0.000E+00  1.07555E+03  1.909E+00  9.636E+00  7.227E-02  1.955E+00
   1    3    6     3     2    1.7175E+00  2.4905E-01   1.4684E+00  0.000E+00  0.000E+00  0.000E+00  1.07264E+03  1.727E+00  8.909E+00  6.682E-02  1.864E+00
   1    3    7     3     3    1.4684E+00  1.9718E-01   1.2712E+00  0.000E+00  0.000E+00  0.000E+00  1.06987E+03  1.555E+00  8.218E+00  5.547E-02  1.777E+00
   1    4    8     3     4    1.2712E+00  2.2567E-01   1.0456E+00  0.000E+00  0.000E+00  0.000E+00  1.06682E+03  1.364E+00  7.455E+00  6.709E-02  1.682E+00
   1    5    8     3     5    1.0456E+00  1.5790E-01   8.8768E-01  0.000E+00  0.000E+00  0.000E+00  1.06362E+03  1.164E+00  6.655E+00  4.991E-02  1.582E+00
   1    6    8     3     6    8.8768E-01  5.5980E-02   8.3170E-01  0.000E+00  0.000E+00  0.000E+00  1.06158E+03  1.036E+00  6.145E+00  1.844E-02  1.518E+00
   1    5   10     4     1    1.0000E+01  9.0919E-02   9.9091E+00  0.000E+00  0.000E+00  0.000E+00  1.07836E+03  6.368E-01  1.000E+01  2.500E-02  1.212E+00
   1    5    9     4     2    9.9091E+00  1.8158E-01   9.7275E+00  0.000E+00  0.000E+00  0.000E+00  1.07154E+03  6.315E-01  1.000E+01  5.000E-02  1.211E+00
   1    6    8     4     3    9.7275E+00  1.2689E-01   9.6006E+00  0.000E+00  0.000E+00  0.000E+00  1.06381E+03  6.256E-01  1.000E+01  3.500E-02  1.209E+00
   1    6    8     5     1    1.0432E+01  2.2686E-01   1.0205E+01  0.000E+00  0.000E+00  0.000E+00  1.05868E+03  6.790E-01  1.542E+01  6.166E-02  1.226E+00
   1    7    7     5     2    1.0205E+01  2.7894E-01   9.9265E+00  0.000E+00  0.000E+00  0.000E+00  1.05417E+03  6.732E-01  1.519E+01  7.594E-02  1.224E+00
   1    8    7     5     3    9.9265E+00  1.9221E-01   9.7343E+00  0.000E+00  0.000E+00  0.000E+00  1.04992E+03  6.676E-01  1.497E+01  5.241E-02  1.223E+00
   1    8    6     5     4    9.7343E+00  1.3577E-01   9.5985E+00  0.000E+00  0.000E+00  0.000E+00  1.04691E+03  6.637E-01  1.482E+01  3.706E-02  1.221E+00
   1    9    6     6     1    8.6641E+01  3.3426E-01   8.6306E+01  0.000E+00  0.000E+00  0.000E+00  1.04530E+03  2.571E+00  1.200E+01  6.000E-02  1.857E+00
   1   10    7     6     2    8.6306E+01  3.3390E-01   8.5973E+01  0.000E+00  0.000E+00  0.000E+00  1.04075E+03  2.565E+00  1.200E+01  6.000E-02  1.855E+00
   1   11    7     6     3    8.5973E+01  3.3354E-01   8.5639E+01  0.000E+00  0.000E+00  0.000E+00  1.03620E+03  2.559E+00  1.200E+01  6.000E-02  1.853E+00
   1   12    7     6     4    8.5639E+01  3.3319E-01   8.5306E+01  0.000E+00  0.000E+00  0.000E+00  1.03164E+03  2.553E+00  1.200E+01  6.000E-02  1.851E+00
   1   13    7     6     5    8.5306E+01  2.9750E-02   8.5276E+01  0.000E+00  0.000E+00  0.000E+00  1.02846E+03  2.550E+00  1.200E+01  2.400E-02  4.132E-01
   1   14    9     7     1    1.5000E+02  1.3319E+00   1.4867E+02  0.000E+00  0.000E+00  0.000E+00  1.03987E+03  2.288E+00  5.529E+01  5.593E-01  7.938E-01
   1   13    8     7     2    1.4867E+02  1.8054E+00   1.4686E+02  0.000E+00  0.000E+00  0.000E+00  1.03478E+03  2.279E+00  5.526E+01  6.148E-01  9.789E-01
   1   13    7     7     3    1.4686E+02  1.3799E+00   1.4548E+02  0.000E+00  0.000E+00  0.000E+00  1.02969E+03  2.271E+00  5.522E+01  5.585E-01  8.236E-01
   1   13    6     8     1    2.3076E+02  1.0579E+00   2.2970E+02  0.000E+00  0.000E+00  0.000E+00  1.02518E+03  3.308E+00  4.796E+01  4.888E-01  7.215E-01
   1   13    5     8     2    2.2970E+02  2.2250E-01   2.2948E+02  0.000E+00  0.000E+00  0.000E+00  1.01893E+03  3.304E+00  4.791E+01  4.882E-01  1.519E-01
   1   13    4     8     3    2.2948E+02 -2.0158E+00   2.3149E+02  0.000E+00  0.000E+00  0.000E+00  1.01268E+03  3.309E+00  4.798E+01  4.890E+00 -1.374E-01
   1   13    3     8     4    2.3149E+02 -3.1953E+00   2.3469E+02  0.000E+00  0.000E+00  0.000E+00  1.00645E+03  3.323E+00  4.819E+01  4.910E+00 -2.169E-01
   1   13    2     8     5    2.3469E+02 -2.5918E+00   2.3728E+02  0.000E+00  0.000E+00  0.000E+00  1.00021E+03  3.339E+00  4.841E+01  4.933E+00 -1.751E-01
   1   13    1     8     6    2.3728E+02 -1.9912E+00   2.3927E+02  0.000E+00  0.000E+00  0.000E+00  9.95226E+02  3.351E+00  4.858E+01  2.971E+00 -2.234E-01



 UBDSV3 SAVING "           GW ET" ON UNIT  61 AT TIME STEP 10, STRESS PERIOD   7
 UBDSV3 SAVING "    UZF RECHARGE" ON UNIT  61 AT TIME STEP 10, STRESS PERIOD   7
 UBDSV3 SAVING " SURFACE LEAKAGE" ON UNIT  61 AT TIME STEP 10, STRESS PERIOD   7
 UBDSV3 SAVING "       HORT+DUNN" ON UNIT  61 AT TIME STEP 10, STRESS PERIOD   7
 UBDSV3 SAVING "  STORAGE CHANGE" ON UNIT  61 AT TIME STEP 10, STRESS PERIOD   7


UNSATURATED ZONE PACKAGE VOLUMETRIC BUDGET FOR  TIME STEP    10 STRESS PERIOD    7
  ------------------------------------------------------------------------------



     CUMULATIVE VOLUMES      L**3       RATES FOR THIS TIME STEP      L**3/T
     ------------------                 ------------------------

           IN:                                      IN:
           ---                                      ---
        INFILTRATION =   108272030.1086          INFILTRATION =          26.6074

          OUT:                                     OUT:
          ----                                     ----
              UZF ET =    90806355.6238                UZF ET =          26.6075
        UZF RECHARGE =      388459.6891          UZF RECHARGE =       0.0000E+00

            IN - OUT =    17077214.7958              IN - OUT =      -1.1849E-04

          STORAGE:                                 STORAGE:
          --------                                 --------
      STORAGE CHANGE =    17077787.1343        STORAGE CHANGE =      -1.1879E-04

 PERCENT DISCREPANCY IS DIFFERENCE BETWEEN IN-OUT MINUS CHANGE IN STORAGE
 DIVIDED BY THE AVERAGE OF IN AND OUT TIMES 100

 PERCENT DISCREPANCY =          -0.00     PERCENT DISCREPANCY =           0.00






 

            AG WELLS      PERIOD    7   STEP  10
 AG WELL      1   LAYER   1   ROW     6   COL     4   RATE    -3.72250    
 AG WELL      2   LAYER   1   ROW     6   COL     5   RATE    -3.71250    
 AG WELL      3   LAYER   1   ROW     7   COL     4   RATE    -3.72000    
 AG WELL      4   LAYER   1   ROW     7   COL     5   RATE    -3.69988    
 AG WELL      5   LAYER   1   ROW     8   COL     4   RATE    -3.72000    
 AG WELL      6   LAYER   1   ROW     8   COL     5   RATE    -3.62500    
 
 

        GW IRRIGATION     PERIOD    7   STEP  10
 AG WELL      1   ROW     6   COL     4   RATE     3.72250    
 AG WELL      2   ROW     6   COL     5   RATE     3.71250    
 AG WELL      3   ROW     7   COL     4   RATE     3.72000    
 AG WELL      4   ROW     7   COL     5   RATE     3.69988    
 AG WELL      5   ROW     8   COL     4   RATE     3.72000    
 AG WELL      6   ROW     8   COL     5   RATE     3.62500    
 
1
  VOLUMETRIC BUDGET FOR AGRICULTURAL FIELDS AT TIME STEP   10, STRESS PERIOD   7
  ------------------------------------------------------------------------------

     CUMULATIVE VOLUMES      L**3       RATES FOR THIS TIME STEP      L**3/T
     ------------------                 ------------------------

           IN:                                      IN:
           ---                                      ---
               AG WELLS  =    46376272.0000                 AG WELLS  =          22.1999
      DIVERSION SEGMENTS =           0.0000        DIVERSION SEGMENTS =           0.0000
           GW IRRIGATION =           0.0000             GW IRRIGATION =           0.0000
           SW IRRIGATION =           0.0000             SW IRRIGATION =           0.0000
        SYSTEM LOSSES GW =           0.0000          SYSTEM LOSSES GW =           0.0000
        SYSTEM LOSSES SW =           0.0000          SYSTEM LOSSES SW =           0.0000

                TOTAL IN =    46376272.0000                  TOTAL IN =          22.1999

          OUT:                                     OUT:
          ----                                     ----
               AG WELLS  =           0.0000                 AG WELLS  =           0.0000
      DIVERSION SEGMENTS =           0.0000        DIVERSION SEGMENTS =           0.0000
           GW IRRIGATION =    46376272.0000             GW IRRIGATION =          22.1999
           SW IRRIGATION =           0.0000             SW IRRIGATION =           0.0000
        SYSTEM LOSSES GW =           0.0000          SYSTEM LOSSES GW =           0.0000
        SYSTEM LOSSES SW =           0.0000          SYSTEM LOSSES SW =           0.0000

               TOTAL OUT =    46376272.0000                 TOTAL OUT =          22.1999

                IN - OUT =           0.0000                  IN - OUT =           0.0000

     PERCENT DISCREPANCY =           0.00         PERCENT DISCREPANCY =           0.00



1
  VOLUMETRIC BUDGET FOR ENTIRE MODEL AT END OF TIME STEP   10, STRESS PERIOD   7
  ------------------------------------------------------------------------------

     CUMULATIVE VOLUMES      L**3       RATES FOR THIS TIME STEP      L**3/T
     ------------------                 ------------------------

           IN:                                      IN:
           ---                                      ---
             STORAGE     =    53805320.0000               STORAGE     =          21.9027
       CONSTANT HEAD     =           0.0000         CONSTANT HEAD     =           0.0000
     HEAD DEP BOUNDS     =     4028549.5000       HEAD DEP BOUNDS     =           0.2855
      STREAM LEAKAGE     =   178523040.0000        STREAM LEAKAGE     =          13.5219
        UZF RECHARGE     =      388459.5938          UZF RECHARGE     =           0.0000
               GW ET     =           0.0000                 GW ET     =           0.0000
     SURFACE LEAKAGE     =           0.0000       SURFACE LEAKAGE     =           0.0000
           AG WELLS      =           0.0000             AG WELLS      =           0.0000

                TOTAL IN =   236745376.0000                  TOTAL IN =          35.7101

          OUT:                                     OUT:
          ----                                     ----
             STORAGE     =    38992140.0000               STORAGE     =           1.9721
       CONSTANT HEAD     =           0.0000         CONSTANT HEAD     =           0.0000
     HEAD DEP BOUNDS     =     4148391.0000       HEAD DEP BOUNDS     =           0.3000
      STREAM LEAKAGE     =   143781840.0000        STREAM LEAKAGE     =           9.7941
        UZF RECHARGE     =           0.0000          UZF RECHARGE     =           0.0000
               GW ET     =     3451034.0000                 GW ET     =           1.4440
     SURFACE LEAKAGE     =           0.0000       SURFACE LEAKAGE     =           0.0000
           AG WELLS      =    46376272.0000             AG WELLS      =          22.1999

               TOTAL OUT =   236749680.0000                 TOTAL OUT =          35.7101

                IN - OUT =       -4304.0000                  IN - OUT =      -6.1035E-05

     PERCENT DISCREPANCY =          -0.00         PERCENT DISCREPANCY =          -0.00






         TIME SUMMARY AT END OF TIME STEP   10 IN STRESS PERIOD    7
                    SECONDS     MINUTES      HOURS       DAYS        YEARS
                    -----------------------------------------------------------
   TIME STEP LENGTH  87667.      1461.1      24.352      1.0147     2.77799E-03
 STRESS PERIOD TIME 8.76667E+05  14611.      243.52      10.147     2.77799E-02
         TOTAL TIME 1.41131E+07 2.35218E+05  3920.3      163.35     0.44722    
1
 
 SOLVING FOR HEAD 
                                                   Max.-Head-Change                         Max.-Flux-Residual
  Residual-Control   Outer-Iter.   Inner-Iter.     Column Row Layer    Maximum-Head-Change  Column Row Layer    Maximum-Flux-Residual          L2-NORM 
          0                 1           2             4    7     1      -0.5787894698E-01       4    7    1        -0.3033442532E+01      0.6696901801E+01
          0                 2           2             4    7     1       0.5126352135E-02       4    7    1         0.2755484933E+00      0.6115234567E+00
          0                 3           2             4    7     1      -0.3490901571E-03       4    7    1        -0.1928866089E-01      0.4280538612E-01
          0                 4           1             4    7     1       0.1389055967E-04       4    7    1         0.7889072419E-03      0.1750574776E-02

    ------------------------------------------------
       NWT REQUIRED            4 OUTER ITERATIONS 
       AND A TOTAL OF          7 INNER ITERATIONS.
    ------------------------------------------------

 NO OUTPUT CONTROL FOR STRESS PERIOD    7   TIME STEP   11
 
 SOLVING FOR HEAD 
                                                   Max.-Head-Change                         Max.-Flux-Residual
  Residual-Control   Outer-Iter.   Inner-Iter.     Column Row Layer    Maximum-Head-Change  Column Row Layer    Maximum-Flux-Residual          L2-NORM 
          0                 1           2             4    7     1      -0.5735493342E-01       4    7    1        -0.3006471448E+01      0.6616148703E+01
          0                 2           2             4    7     1       0.5075378004E-02       4    7    1         0.2728513605E+00      0.6040453158E+00
          0                 3           2             4    7     1      -0.3456190123E-03       4    7    1        -0.1909986183E-01      0.4228237485E-01
          0                 4           1             4    7     1       0.1375243971E-04       4    7    1         0.7811853554E-03      0.1729161698E-02

    ------------------------------------------------
       NWT REQUIRED            4 OUTER ITERATIONS 
       AND A TOTAL OF          7 INNER ITERATIONS.
    ------------------------------------------------

 NO OUTPUT CONTROL FOR STRESS PERIOD    7   TIME STEP   12
 
 SOLVING FOR HEAD 
                                                   Max.-Head-Change                         Max.-Flux-Residual
  Residual-Control   Outer-Iter.   Inner-Iter.     Column Row Layer    Maximum-Head-Change  Column Row Layer    Maximum-Flux-Residual          L2-NORM 
          0                 1           2             4    7     1      -0.5682694180E-01       4    7    1        -0.2979242111E+01      0.6538552228E+01
          0                 2           2             4    7     1       0.5024021367E-02       4    7    1         0.2701286496E+00      0.5968738217E+00
          0                 3           2             4    7     1      -0.3421218191E-03       4    7    1        -0.1890927228E-01      0.4178075375E-01
          0                 4           1             4    7     1       0.1361328291E-04       4    7    1         0.7733902103E-03      0.1708682300E-02

    ------------------------------------------------
       NWT REQUIRED            4 OUTER ITERATIONS 
       AND A TOTAL OF          7 INNER ITERATIONS.
    ------------------------------------------------

 NO OUTPUT CONTROL FOR STRESS PERIOD    7   TIME STEP   13
 
 SOLVING FOR HEAD 
                                                   Max.-Head-Change                         Max.-Flux-Residual
  Residual-Control   Outer-Iter.   Inner-Iter.     Column Row Layer    Maximum-Head-Change  Column Row Layer    Maximum-Flux-Residual          L2-NORM 
          0                 1           2             4    7     1      -0.5629589048E-01       4    7    1        -0.2951806062E+01      0.6463824854E+01
          0                 2           2             4    7     1       0.4972362924E-02       4    7    1         0.2673850367E+00      0.5899787370E+00
          0                 3           2             4    7     1      -0.3386040745E-03       4    7    1        -0.1871721946E-01      0.4129834080E-01
          0                 4           1             4    7     1       0.1347330824E-04       4    7    1         0.7655352340E-03      0.1688956974E-02

    ------------------------------------------------
       NWT REQUIRED            4 OUTER ITERATIONS 
       AND A TOTAL OF          7 INNER ITERATIONS.
    ------------------------------------------------

 NO OUTPUT CONTROL FOR STRESS PERIOD    7   TIME STEP   14
 
 SOLVING FOR HEAD 
                                                   Max.-Head-Change                         Max.-Flux-Residual
  Residual-Control   Outer-Iter.   Inner-Iter.     Column Row Layer    Maximum-Head-Change  Column Row Layer    Maximum-Flux-Residual          L2-NORM 
          0                 1           2             4    7     1      -0.5576265262E-01       4    7    1        -0.2924211613E+01      0.6391752089E+01
          0                 2           2             4    7     1       0.4920491907E-02       4    7    1         0.2646255910E+00      0.5833396903E+00
          0                 3           2             4    7     1      -0.3350718520E-03       4    7    1        -0.1852405831E-01      0.4083376055E-01
          0                 4           1             4    7     1       0.1333275816E-04       4    7    1         0.7576349408E-03      0.1669939580E-02

    ------------------------------------------------
       NWT REQUIRED            4 OUTER ITERATIONS 
       AND A TOTAL OF          7 INNER ITERATIONS.
    ------------------------------------------------

 OUTPUT CONTROL FOR STRESS PERIOD    7   TIME STEP   15
    PRINT BUDGET
    SAVE BUDGET
 UBDSV1 SAVING "         STORAGE" ON UNIT 102 AT TIME STEP 15, STRESS PERIOD   7
 UBDSV2 SAVING "   CONSTANT HEAD" ON UNIT 102 AT TIME STEP 15, STRESS PERIOD   7
 UBDSV1 SAVING "FLOW RIGHT FACE " ON UNIT 102 AT TIME STEP 15, STRESS PERIOD   7
 UBDSV1 SAVING "FLOW FRONT FACE " ON UNIT 102 AT TIME STEP 15, STRESS PERIOD   7

  HEAD DEP BOUNDS   PERIOD    7   STEP    15
 BOUNDARY      1   LAYER   1   ROW    13   COL     1   RATE   -0.299957    
 BOUNDARY      2   LAYER   1   ROW    14   COL     9   RATE    0.285489    



 STREAM LISTING     PERIOD      7   STEP       15

 LAYER ROW COL. STREAM  RCH.  FLOW INTO     FLOW TO   FLOW OUT OF   OVRLND.     DIRECT     STREAM       STREAM     STREAM     STREAM   STREAMBED  STREAMBED
                SEG.NO.  NO.  STRM. RCH.    AQUIFER    STRM. RCH.    RUNOFF     PRECIP       ET          HEAD       DEPTH      WIDTH   CONDCTNC.   GRADIENT

   1    1    1     1     1    8.3000E+01  4.4019E-01   8.2560E+01  0.000E+00  0.000E+00  0.000E+00  1.09478E+03  1.734E+00  2.066E+01  9.299E-02  1.578E+00
   1    2    2     1     2    8.2560E+01  6.8286E-01   8.1877E+01  0.000E+00  0.000E+00  0.000E+00  1.08979E+03  1.731E+00  2.062E+01  1.443E-01  1.577E+00
   1    3    3     1     3    8.1877E+01  5.8349E-01   8.1294E+01  0.000E+00  0.000E+00  0.000E+00  1.08415E+03  1.729E+00  2.057E+01  1.234E-01  1.576E+00
   1    3    4     1     4    8.1294E+01  5.3822E-01   8.0756E+01  0.000E+00  0.000E+00  0.000E+00  1.07913E+03  1.726E+00  2.052E+01  1.139E-01  1.575E+00
   1    4    5     2     1    7.8756E+01  4.2120E-01   7.8334E+01  0.000E+00  0.000E+00  0.000E+00  1.07433E+03  2.400E+00  1.200E+01  7.800E-02  1.800E+00
   1    5    6     2     2    7.8334E+01  3.2359E-01   7.8011E+01  0.000E+00  0.000E+00  0.000E+00  1.06890E+03  2.393E+00  1.200E+01  6.000E-02  1.798E+00
   1    6    6     2     3    7.8011E+01  3.2323E-01   7.7688E+01  0.000E+00  0.000E+00  0.000E+00  1.06418E+03  2.387E+00  1.200E+01  6.000E-02  1.796E+00
   1    7    6     2     4    7.7688E+01  3.2288E-01   7.7365E+01  0.000E+00  0.000E+00  0.000E+00  1.05946E+03  2.381E+00  1.200E+01  6.000E-02  1.794E+00
   1    8    6     2     5    7.7365E+01  3.2252E-01   7.7042E+01  0.000E+00  0.000E+00  0.000E+00  1.05473E+03  2.375E+00  1.200E+01  6.000E-02  1.792E+00
   1    3    5     3     1    2.0000E+00  2.8252E-01   1.7175E+00  0.000E+00  0.000E+00  0.000E+00  1.07555E+03  1.909E+00  9.636E+00  7.227E-02  1.955E+00
   1    3    6     3     2    1.7175E+00  2.4905E-01   1.4684E+00  0.000E+00  0.000E+00  0.000E+00  1.07264E+03  1.727E+00  8.909E+00  6.682E-02  1.864E+00
   1    3    7     3     3    1.4684E+00  1.9718E-01   1.2712E+00  0.000E+00  0.000E+00  0.000E+00  1.06987E+03  1.555E+00  8.218E+00  5.547E-02  1.777E+00
   1    4    8     3     4    1.2712E+00  2.2567E-01   1.0456E+00  0.000E+00  0.000E+00  0.000E+00  1.06682E+03  1.364E+00  7.455E+00  6.709E-02  1.682E+00
   1    5    8     3     5    1.0456E+00  1.5790E-01   8.8768E-01  0.000E+00  0.000E+00  0.000E+00  1.06362E+03  1.164E+00  6.655E+00  4.991E-02  1.582E+00
   1    6    8     3     6    8.8768E-01  5.5980E-02   8.3170E-01  0.000E+00  0.000E+00  0.000E+00  1.06158E+03  1.036E+00  6.145E+00  1.844E-02  1.518E+00
   1    5   10     4     1    1.0000E+01  9.0919E-02   9.9091E+00  0.000E+00  0.000E+00  0.000E+00  1.07836E+03  6.368E-01  1.000E+01  2.500E-02  1.212E+00
   1    5    9     4     2    9.9091E+00  1.8158E-01   9.7275E+00  0.000E+00  0.000E+00  0.000E+00  1.07154E+03  6.315E-01  1.000E+01  5.000E-02  1.211E+00
   1    6    8     4     3    9.7275E+00  1.2689E-01   9.6006E+00  0.000E+00  0.000E+00  0.000E+00  1.06381E+03  6.256E-01  1.000E+01  3.500E-02  1.209E+00
   1    6    8     5     1    1.0432E+01  2.2686E-01   1.0205E+01  0.000E+00  0.000E+00  0.000E+00  1.05868E+03  6.790E-01  1.542E+01  6.166E-02  1.226E+00
   1    7    7     5     2    1.0205E+01  2.7894E-01   9.9265E+00  0.000E+00  0.000E+00  0.000E+00  1.05417E+03  6.732E-01  1.519E+01  7.594E-02  1.224E+00
   1    8    7     5     3    9.9265E+00  1.9221E-01   9.7343E+00  0.000E+00  0.000E+00  0.000E+00  1.04992E+03  6.676E-01  1.497E+01  5.241E-02  1.223E+00
   1    8    6     5     4    9.7343E+00  1.3577E-01   9.5985E+00  0.000E+00  0.000E+00  0.000E+00  1.04691E+03  6.637E-01  1.482E+01  3.706E-02  1.221E+00
   1    9    6     6     1    8.6641E+01  3.3426E-01   8.6306E+01  0.000E+00  0.000E+00  0.000E+00  1.04530E+03  2.571E+00  1.200E+01  6.000E-02  1.857E+00
   1   10    7     6     2    8.6306E+01  3.3390E-01   8.5973E+01  0.000E+00  0.000E+00  0.000E+00  1.04075E+03  2.565E+00  1.200E+01  6.000E-02  1.855E+00
   1   11    7     6     3    8.5973E+01  3.3354E-01   8.5639E+01  0.000E+00  0.000E+00  0.000E+00  1.03620E+03  2.559E+00  1.200E+01  6.000E-02  1.853E+00
   1   12    7     6     4    8.5639E+01  3.3319E-01   8.5306E+01  0.000E+00  0.000E+00  0.000E+00  1.03164E+03  2.553E+00  1.200E+01  6.000E-02  1.851E+00
   1   13    7     6     5    8.5306E+01  2.9664E-02   8.5276E+01  0.000E+00  0.000E+00  0.000E+00  1.02846E+03  2.550E+00  1.200E+01  2.400E-02  4.120E-01
   1   14    9     7     1    1.5000E+02  1.3319E+00   1.4867E+02  0.000E+00  0.000E+00  0.000E+00  1.03987E+03  2.288E+00  5.529E+01  5.593E-01  7.938E-01
   1   13    8     7     2    1.4867E+02  1.8047E+00   1.4686E+02  0.000E+00  0.000E+00  0.000E+00  1.03478E+03  2.279E+00  5.526E+01  6.148E-01  9.785E-01
   1   13    7     7     3    1.4686E+02  1.3779E+00   1.4549E+02  0.000E+00  0.000E+00  0.000E+00  1.02969E+03  2.271E+00  5.522E+01  5.585E-01  8.224E-01
   1   13    6     8     1    2.3076E+02  1.0559E+00   2.2971E+02  0.000E+00  0.000E+00  0.000E+00  1.02518E+03  3.308E+00  4.796E+01  4.888E-01  7.202E-01
   1   13    5     8     2    2.2971E+02  2.2193E-01   2.2948E+02  0.000E+00  0.000E+00  0.000E+00  1.01893E+03  3.304E+00  4.791E+01  4.883E-01  1.515E-01
   1   13    4     8     3    2.2948E+02 -1.9861E+00   2.3147E+02  0.000E+00  0.000E+00  0.000E+00  1.01268E+03  3.309E+00  4.798E+01  4.890E+00 -1.354E-01
   1   13    3     8     4    2.3147E+02 -3.1622E+00   2.3463E+02  0.000E+00  0.000E+00  0.000E+00  1.00645E+03  3.323E+00  4.818E+01  4.910E+00 -2.147E-01
   1   13    2     8     5    2.3463E+02 -2.5565E+00   2.3719E+02  0.000E+00  0.000E+00  0.000E+00  1.00021E+03  3.338E+00  4.840E+01  4.932E+00 -1.728E-01
   1   13    1     8     6    2.3719E+02 -1.9853E+00   2.3917E+02  0.000E+00  0.000E+00  0.000E+00  9.95225E+02  3.350E+00  4.858E+01  2.970E+00 -2.228E-01



 UBDSV3 SAVING "           GW ET" ON UNIT  61 AT TIME STEP 15, STRESS PERIOD   7
 UBDSV3 SAVING "    UZF RECHARGE" ON UNIT  61 AT TIME STEP 15, STRESS PERIOD   7
 UBDSV3 SAVING " SURFACE LEAKAGE" ON UNIT  61 AT TIME STEP 15, STRESS PERIOD   7
 UBDSV3 SAVING "       HORT+DUNN" ON UNIT  61 AT TIME STEP 15, STRESS PERIOD   7
 UBDSV3 SAVING "  STORAGE CHANGE" ON UNIT  61 AT TIME STEP 15, STRESS PERIOD   7


UNSATURATED ZONE PACKAGE VOLUMETRIC BUDGET FOR  TIME STEP    15 STRESS PERIOD    7
  ------------------------------------------------------------------------------



     CUMULATIVE VOLUMES      L**3       RATES FOR THIS TIME STEP      L**3/T
     ------------------                 ------------------------

           IN:                                      IN:
           ---                                      ---
        INFILTRATION =   119934938.1741          INFILTRATION =          26.6074

          OUT:                                     OUT:
          ----                                     ----
              UZF ET =   102469310.5017                UZF ET =          26.6075
        UZF RECHARGE =      388459.6891          UZF RECHARGE =       0.0000E+00

            IN - OUT =    17077167.9833              IN - OUT =      -9.9421E-05

          STORAGE:                                 STORAGE:
          --------                                 --------
      STORAGE CHANGE =    17077740.2666        STORAGE CHANGE =      -9.9604E-05

 PERCENT DISCREPANCY IS DIFFERENCE BETWEEN IN-OUT MINUS CHANGE IN STORAGE
 DIVIDED BY THE AVERAGE OF IN AND OUT TIMES 100

 PERCENT DISCREPANCY =          -0.00     PERCENT DISCREPANCY =           0.00






 

            AG WELLS      PERIOD    7   STEP  15
 AG WELL      1   LAYER   1   ROW     6   COL     4   RATE    -3.72250    
 AG WELL      2   LAYER   1   ROW     6   COL     5   RATE    -3.71250    
 AG WELL      3   LAYER   1   ROW     7   COL     4   RATE    -3.72000    
 AG WELL      4   LAYER   1   ROW     7   COL     5   RATE    -3.69990    
 AG WELL      5   LAYER   1   ROW     8   COL     4   RATE    -3.72000    
 AG WELL      6   LAYER   1   ROW     8   COL     5   RATE    -3.62500    
 
 

        GW IRRIGATION     PERIOD    7   STEP  15
 AG WELL      1   ROW     6   COL     4   RATE     3.72250    
 AG WELL      2   ROW     6   COL     5   RATE     3.71250    
 AG WELL      3   ROW     7   COL     4   RATE     3.72000    
 AG WELL      4   ROW     7   COL     5   RATE     3.69990    
 AG WELL      5   ROW     8   COL     4   RATE     3.72000    
 AG WELL      6   ROW     8   COL     5   RATE     3.62500    
 
1
  VOLUMETRIC BUDGET FOR AGRICULTURAL FIELDS AT TIME STEP   15, STRESS PERIOD   7
  ------------------------------------------------------------------------------

     CUMULATIVE VOLUMES      L**3       RATES FOR THIS TIME STEP      L**3/T
     ------------------                 ------------------------

           IN:                                      IN:
           ---                                      ---
               AG WELLS  =    56107232.0000                 AG WELLS  =          22.1999
      DIVERSION SEGMENTS =           0.0000        DIVERSION SEGMENTS =           0.0000
           GW IRRIGATION =           0.0000             GW IRRIGATION =           0.0000
           SW IRRIGATION =           0.0000             SW IRRIGATION =           0.0000
        SYSTEM LOSSES GW =           0.0000          SYSTEM LOSSES GW =           0.0000
        SYSTEM LOSSES SW =           0.0000          SYSTEM LOSSES SW =           0.0000

                TOTAL IN =    56107232.0000                  TOTAL IN =          22.1999

          OUT:                                     OUT:
          ----                                     ----
               AG WELLS  =           0.0000                 AG WELLS  =           0.0000
      DIVERSION SEGMENTS =           0.0000        DIVERSION SEGMENTS =           0.0000
           GW IRRIGATION =    56107232.0000             GW IRRIGATION =          22.1999
           SW IRRIGATION =           0.0000             SW IRRIGATION =           0.0000
        SYSTEM LOSSES GW =           0.0000          SYSTEM LOSSES GW =           0.0000
        SYSTEM LOSSES SW =           0.0000          SYSTEM LOSSES SW =           0.0000

               TOTAL OUT =    56107232.0000                 TOTAL OUT =          22.1999

                IN - OUT =           0.0000                  IN - OUT =           0.0000

     PERCENT DISCREPANCY =           0.00         PERCENT DISCREPANCY =           0.00



1
  VOLUMETRIC BUDGET FOR ENTIRE MODEL AT END OF TIME STEP   15, STRESS PERIOD   7
  ------------------------------------------------------------------------------

     CUMULATIVE VOLUMES      L**3       RATES FOR THIS TIME STEP      L**3/T
     ------------------                 ------------------------

           IN:                                      IN:
           ---                                      ---
             STORAGE     =    63329680.0000               STORAGE     =          21.6378
       CONSTANT HEAD     =           0.0000         CONSTANT HEAD     =           0.0000
     HEAD DEP BOUNDS     =     4153689.5000       HEAD DEP BOUNDS     =           0.2855
      STREAM LEAKAGE     =   184448720.0000        STREAM LEAKAGE     =          13.5165
        UZF RECHARGE     =      388459.5938          UZF RECHARGE     =           0.0000
               GW ET     =           0.0000                 GW ET     =           0.0000
     SURFACE LEAKAGE     =           0.0000       SURFACE LEAKAGE     =           0.0000
           AG WELLS      =           0.0000             AG WELLS      =           0.0000

                TOTAL IN =   252320560.0000                  TOTAL IN =          35.4398

          OUT:                                     OUT:
          ----                                     ----
             STORAGE     =    39837876.0000               STORAGE     =           1.9023
       CONSTANT HEAD     =           0.0000         CONSTANT HEAD     =           0.0000
     HEAD DEP BOUNDS     =     4279887.0000       HEAD DEP BOUNDS     =           0.3000
      STREAM LEAKAGE     =   148044784.0000        STREAM LEAKAGE     =           9.6901
        UZF RECHARGE     =           0.0000          UZF RECHARGE     =           0.0000
               GW ET     =     4055101.2500                 GW ET     =           1.3476
     SURFACE LEAKAGE     =           0.0000       SURFACE LEAKAGE     =           0.0000
           AG WELLS      =    56107232.0000             AG WELLS      =          22.1999

               TOTAL OUT =   252324880.0000                 TOTAL OUT =          35.4399

                IN - OUT =       -4320.0000                  IN - OUT =      -6.1035E-05

     PERCENT DISCREPANCY =          -0.00         PERCENT DISCREPANCY =          -0.00






         TIME SUMMARY AT END OF TIME STEP   15 IN STRESS PERIOD    7
                    SECONDS     MINUTES      HOURS       DAYS        YEARS
                    -----------------------------------------------------------
   TIME STEP LENGTH  87667.      1461.1      24.352      1.0147     2.77799E-03
 STRESS PERIOD TIME 1.31500E+06  21917.      365.28      15.220     4.16698E-02
         TOTAL TIME 1.45514E+07 2.42524E+05  4042.1      168.42     0.46111    
1
 
 SOLVING FOR HEAD 
                                                   Max.-Head-Change                         Max.-Flux-Residual
  Residual-Control   Outer-Iter.   Inner-Iter.     Column Row Layer    Maximum-Head-Change  Column Row Layer    Maximum-Flux-Residual          L2-NORM 
          0                 1           2             4    7     1      -0.5522828592E-01       4    7    1        -0.2896518590E+01      0.6322132892E+01
          0                 2           2             4    7     1       0.4868511188E-02       4    7    1         0.2618562941E+00      0.5769362183E+00
          0                 3           2             4    7     1      -0.3315321581E-03       4    7    1        -0.1833020751E-01      0.4038567619E-01
          0                 4           1             4    7     1       0.1319191036E-04       4    7    1         0.7497064248E-03      0.1651643545E-02

    ------------------------------------------------
       NWT REQUIRED            4 OUTER ITERATIONS 
       AND A TOTAL OF          7 INNER ITERATIONS.
    ------------------------------------------------

 NO OUTPUT CONTROL FOR STRESS PERIOD    7   TIME STEP   16
 
 SOLVING FOR HEAD 
                                                   Max.-Head-Change                         Max.-Flux-Residual
  Residual-Control   Outer-Iter.   Inner-Iter.     Column Row Layer    Maximum-Head-Change  Column Row Layer    Maximum-Flux-Residual          L2-NORM 
          0                 1           2             4    7     1      -0.5469297798E-01       4    7    1        -0.2868737729E+01      0.6254816638E+01
          0                 2           2             4    7     1       0.4816439010E-02       4    7    1         0.2590782193E+00      0.5707525555E+00
          0                 3           2             4    7     1      -0.3279820396E-03       4    7    1        -0.1813550376E-01      0.3995266891E-01
          0                 4           1             4    7     1       0.1305064788E-04       4    7    1         0.7417430370E-03      0.1633942007E-02

    ------------------------------------------------
       NWT REQUIRED            4 OUTER ITERATIONS 
       AND A TOTAL OF          7 INNER ITERATIONS.
    ------------------------------------------------

 NO OUTPUT CONTROL FOR STRESS PERIOD    7   TIME STEP   17
 
 SOLVING FOR HEAD 
                                                   Max.-Head-Change                         Max.-Flux-Residual
  Residual-Control   Outer-Iter.   Inner-Iter.     Column Row Layer    Maximum-Head-Change  Column Row Layer    Maximum-Flux-Residual          L2-NORM 
          0                 1           2             4    7     1      -0.5415768112E-01       4    7    1        -0.2840922394E+01      0.6189651710E+01
          0                 2           2             4    7     1       0.4764368003E-02       4    7    1         0.2562967023E+00      0.5647752677E+00
          0                 3           2             4    7     1      -0.3244361983E-03       4    7    1        -0.1794079746E-01      0.3953436832E-01
          0                 4           1             4    7     1       0.1290955601E-04       4    7    1         0.7337795601E-03      0.1616845623E-02

    ------------------------------------------------
       NWT REQUIRED            4 OUTER ITERATIONS 
       AND A TOTAL OF          7 INNER ITERATIONS.
    ------------------------------------------------

 NO OUTPUT CONTROL FOR STRESS PERIOD    7   TIME STEP   18
 
 SOLVING FOR HEAD 
                                                   Max.-Head-Change                         Max.-Flux-Residual
  Residual-Control   Outer-Iter.   Inner-Iter.     Column Row Layer    Maximum-Head-Change  Column Row Layer    Maximum-Flux-Residual          L2-NORM 
          0                 1           2             4    7     1      -0.5362301684E-01       4    7    1        -0.2813107879E+01      0.6126515300E+01
          0                 2           2             4    7     1       0.4712358608E-02       4    7    1         0.2535152719E+00      0.5589912880E+00
          0                 3           2             4    7     1      -0.3208945491E-03       4    7    1        -0.1774609716E-01      0.3912952318E-01
          0                 4           1             4    7     1       0.1276862993E-04       4    7    1         0.7258162786E-03      0.1600288536E-02

    ------------------------------------------------
       NWT REQUIRED            4 OUTER ITERATIONS 
       AND A TOTAL OF          7 INNER ITERATIONS.
    ------------------------------------------------

 NO OUTPUT CONTROL FOR STRESS PERIOD    7   TIME STEP   19
 
 SOLVING FOR HEAD 
                                                   Max.-Head-Change                         Max.-Flux-Residual
  Residual-Control   Outer-Iter.   Inner-Iter.     Column Row Layer    Maximum-Head-Change  Column Row Layer    Maximum-Flux-Residual          L2-NORM 
          0                 1           2             4    7     1      -0.5308956898E-01       4    7    1        -0.2785326418E+01      0.6065306756E+01
          0                 2           2             4    7     1       0.4660476229E-02       4    7    1         0.2507376278E+00      0.5533919058E+00
          0                 3           2             4    7     1      -0.3173657424E-03       4    7    1        -0.1755190025E-01      0.3873779588E-01
          0                 4           1             4    7     1       0.1262821524E-04       4    7    1         0.7178736155E-03      0.1584267903E-02

    ------------------------------------------------
       NWT REQUIRED            4 OUTER ITERATIONS 
       AND A TOTAL OF          7 INNER ITERATIONS.
    ------------------------------------------------

 NO OUTPUT CONTROL FOR STRESS PERIOD    7   TIME STEP   20
 
 SOLVING FOR HEAD 
                                                   Max.-Head-Change                         Max.-Flux-Residual
  Residual-Control   Outer-Iter.   Inner-Iter.     Column Row Layer    Maximum-Head-Change  Column Row Layer    Maximum-Flux-Residual          L2-NORM 
          0                 1           2             4    7     1      -0.5255811821E-01       4    7    1        -0.2757622348E+01      0.6005910929E+01
          0                 2           2             4    7     1       0.4608779557E-02       4    7    1         0.2479672496E+00      0.5479644457E+00
          0                 3           2             4    7     1      -0.3138453863E-03       4    7    1        -0.1735797354E-01      0.3835802287E-01
          0                 4           1             4    7     1       0.1248813765E-04       4    7    1         0.7099420209E-03      0.1569340754E-02

    ------------------------------------------------
       NWT REQUIRED            4 OUTER ITERATIONS 
       AND A TOTAL OF          7 INNER ITERATIONS.
    ------------------------------------------------

 NO OUTPUT CONTROL FOR STRESS PERIOD    7   TIME STEP   21
 
 SOLVING FOR HEAD 
                                                   Max.-Head-Change                         Max.-Flux-Residual
  Residual-Control   Outer-Iter.   Inner-Iter.     Column Row Layer    Maximum-Head-Change  Column Row Layer    Maximum-Flux-Residual          L2-NORM 
          0                 1           2             4    7     1      -0.5202859812E-01       4    7    1        -0.2729992527E+01      0.5948247583E+01
          0                 2           2             4    7     1       0.4557270753E-02       4    7    1         0.2452042997E+00      0.5427020970E+00
          0                 3           2             4    7     1      -0.3103378257E-03       4    7    1        -0.1716456675E-01      0.3798955571E-01
          0                 4           1             4    7     1       0.1234856799E-04       4    7    1         0.7020316550E-03      0.1553670792E-02

    ------------------------------------------------
       NWT REQUIRED            4 OUTER ITERATIONS 
       AND A TOTAL OF          7 INNER ITERATIONS.
    ------------------------------------------------

 NO OUTPUT CONTROL FOR STRESS PERIOD    7   TIME STEP   22
 
 SOLVING FOR HEAD 
                                                   Max.-Head-Change                         Max.-Flux-Residual
  Residual-Control   Outer-Iter.   Inner-Iter.     Column Row Layer    Maximum-Head-Change  Column Row Layer    Maximum-Flux-Residual          L2-NORM 
          0                 1           2             4    7     1      -0.5150172756E-01       4    7    1        -0.2702477600E+01      0.5892214218E+01
          0                 2           2             4    7     1       0.4506019727E-02       4    7    1         0.2424528419E+00      0.5375946903E+00
          0                 3           2             4    7     1      -0.3068478167E-03       4    7    1        -0.1697196438E-01      0.3763204118E-01
          0                 4           1             4    7     1       0.1220969740E-04       4    7    1         0.6941542174E-03      0.1539048655E-02

    ------------------------------------------------
       NWT REQUIRED            4 OUTER ITERATIONS 
       AND A TOTAL OF          7 INNER ITERATIONS.
    ------------------------------------------------

 NO OUTPUT CONTROL FOR STRESS PERIOD    7   TIME STEP   23
 
 SOLVING FOR HEAD 
                                                   Max.-Head-Change                         Max.-Flux-Residual
  Residual-Control   Outer-Iter.   Inner-Iter.     Column Row Layer    Maximum-Head-Change  Column Row Layer    Maximum-Flux-Residual          L2-NORM 
          0                 1           2             4    7     1      -0.5097817268E-01       4    7    1        -0.2675115071E+01      0.5837744842E+01
          0                 2           2             4    7     1       0.4455095585E-02       4    7    1         0.2397168648E+00      0.5326358433E+00
          0                 3           2             4    7     1      -0.3033800672E-03       4    7    1        -0.1678044564E-01      0.3728494136E-01
          0                 4           1             4    7     1       0.1207171283E-04       4    7    1         0.6863211058E-03      0.1524851158E-02

    ------------------------------------------------
       NWT REQUIRED            4 OUTER ITERATIONS 
       AND A TOTAL OF          7 INNER ITERATIONS.
    ------------------------------------------------

 NO OUTPUT CONTROL FOR STRESS PERIOD    7   TIME STEP   24
 
 SOLVING FOR HEAD 
                                                   Max.-Head-Change                         Max.-Flux-Residual
  Residual-Control   Outer-Iter.   Inner-Iter.     Column Row Layer    Maximum-Head-Change  Column Row Layer    Maximum-Flux-Residual          L2-NORM 
          0                 1           2             4    7     1      -0.5045773583E-01       4    7    1        -0.2647894472E+01      0.5784760989E+01
          0                 2           2             4    7     1       0.4404470476E-02       4    7    1         0.2369948446E+00      0.5278179178E+00
          0                 3           2             4    7     1      -0.2999326784E-03       4    7    1        -0.1658990389E-01      0.3694766747E-01
          0                 4           1             4    7     1       0.1193453760E-04       4    7    1         0.6785279138E-03      0.1511053400E-02

    ------------------------------------------------
       NWT REQUIRED            4 OUTER ITERATIONS 
       AND A TOTAL OF          7 INNER ITERATIONS.
    ------------------------------------------------

 NO OUTPUT CONTROL FOR STRESS PERIOD    7   TIME STEP   25
 
 SOLVING FOR HEAD 
                                                   Max.-Head-Change                         Max.-Flux-Residual
  Residual-Control   Outer-Iter.   Inner-Iter.     Column Row Layer    Maximum-Head-Change  Column Row Layer    Maximum-Flux-Residual          L2-NORM 
          0                 1           2             4    7     1      -0.4994129759E-01       4    7    1        -0.2620865318E+01      0.5733198268E+01
          0                 2           2             4    7     1       0.4354234400E-02       4    7    1         0.2342919707E+00      0.5231342886E+00
          0                 3           2             4    7     1      -0.2965117828E-03       4    7    1        -0.1640070233E-01      0.3661983258E-01
          0                 4           1             4    7     1       0.1179841717E-04       4    7    1         0.6707895670E-03      0.1497644915E-02

    ------------------------------------------------
       NWT REQUIRED            4 OUTER ITERATIONS 
       AND A TOTAL OF          7 INNER ITERATIONS.
    ------------------------------------------------

 NO OUTPUT CONTROL FOR STRESS PERIOD    7   TIME STEP   26
 
 SOLVING FOR HEAD 
                                                   Max.-Head-Change                         Max.-Flux-Residual
  Residual-Control   Outer-Iter.   Inner-Iter.     Column Row Layer    Maximum-Head-Change  Column Row Layer    Maximum-Flux-Residual          L2-NORM 
          0                 1           2             4    7     1      -0.4942860545E-01       4    7    1        -0.2594014215E+01      0.5682996910E+01
          0                 2           2             4    7     1       0.4304363017E-02       4    7    1         0.2316069036E+00      0.5185815666E+00
          0                 3           2             4    7     1      -0.2931115277E-03       4    7    1        -0.1621250882E-01      0.3630094957E-01
          0                 4           1             4    7     1       0.1166311783E-04       4    7    1         0.6630924454E-03      0.1484612583E-02

    ------------------------------------------------
       NWT REQUIRED            4 OUTER ITERATIONS 
       AND A TOTAL OF          7 INNER ITERATIONS.
    ------------------------------------------------

 NO OUTPUT CONTROL FOR STRESS PERIOD    7   TIME STEP   27
 
 SOLVING FOR HEAD 
                                                   Max.-Head-Change                         Max.-Flux-Residual
  Residual-Control   Outer-Iter.   Inner-Iter.     Column Row Layer    Maximum-Head-Change  Column Row Layer    Maximum-Flux-Residual          L2-NORM 
          0                 1           2             4    7     1      -0.4892046528E-01       4    7    1        -0.2567386404E+01      0.5634094646E+01
          0                 2           2             4    7     1       0.4254934144E-02       4    7    1         0.2289441669E+00      0.5141508789E+00
          0                 3           2             4    7     1      -0.2897455995E-03       4    7    1        -0.1602611685E-01      0.3599079890E-01
          0                 4           1             4    7     1       0.1152918437E-04       4    7    1         0.6554689983E-03      0.1471921423E-02

    ------------------------------------------------
       NWT REQUIRED            4 OUTER ITERATIONS 
       AND A TOTAL OF          7 INNER ITERATIONS.
    ------------------------------------------------

 NO OUTPUT CONTROL FOR STRESS PERIOD    7   TIME STEP   28
 
 SOLVING FOR HEAD 
                                                   Max.-Head-Change                         Max.-Flux-Residual
  Residual-Control   Outer-Iter.   Inner-Iter.     Column Row Layer    Maximum-Head-Change  Column Row Layer    Maximum-Flux-Residual          L2-NORM 
          0                 1           2             4    7     1      -0.4841696330E-01       4    7    1        -0.2540987490E+01      0.5586432851E+01
          0                 2           2             4    7     1       0.4205960913E-02       4    7    1         0.2263043209E+00      0.5098016910E+00
          0                 3           2             4    7     1      -0.2864106992E-03       4    7    1        -0.1584132723E-01      0.3568635775E-01
          0                 4           1             4    7     1       0.1139648577E-04       4    7    1         0.6479111078E-03      0.1459468345E-02

    ------------------------------------------------
       NWT REQUIRED            4 OUTER ITERATIONS 
       AND A TOTAL OF          7 INNER ITERATIONS.
    ------------------------------------------------

 NO OUTPUT CONTROL FOR STRESS PERIOD    7   TIME STEP   29
 
 SOLVING FOR HEAD 
                                                   Max.-Head-Change                         Max.-Flux-Residual
  Residual-Control   Outer-Iter.   Inner-Iter.     Column Row Layer    Maximum-Head-Change  Column Row Layer    Maximum-Flux-Residual          L2-NORM 
          0                 1           2             4    7     1      -0.4791818056E-01       4    7    1        -0.2514821461E+01      0.5546043585E+01
          0                 2           2             4    7     1       0.4157438945E-02       4    7    1         0.2236877645E+00      0.5062868897E+00
          0                 3           2             4    7     1      -0.2831065256E-03       4    7    1        -0.1565816784E-01      0.3543745134E-01
          0                 4           1             4    7     1       0.1126500982E-04       4    7    1         0.6404198898E-03      0.1449094714E-02

    ------------------------------------------------
       NWT REQUIRED            4 OUTER ITERATIONS 
       AND A TOTAL OF          7 INNER ITERATIONS.
    ------------------------------------------------

 NO OUTPUT CONTROL FOR STRESS PERIOD    7   TIME STEP   30



 STREAM LISTING     PERIOD      7   STEP       30

 LAYER ROW COL. STREAM  RCH.  FLOW INTO     FLOW TO   FLOW OUT OF   OVRLND.     DIRECT     STREAM       STREAM     STREAM     STREAM   STREAMBED  STREAMBED
                SEG.NO.  NO.  STRM. RCH.    AQUIFER    STRM. RCH.    RUNOFF     PRECIP       ET          HEAD       DEPTH      WIDTH   CONDCTNC.   GRADIENT

   1    1    1     1     1    7.6939E+01  4.2690E-01   7.6512E+01  0.000E+00  0.000E+00  0.000E+00  1.09476E+03  1.708E+00  2.015E+01  9.068E-02  1.569E+00
   1    2    2     1     2    7.6512E+01  6.6216E-01   7.5850E+01  0.000E+00  0.000E+00  0.000E+00  1.08976E+03  1.705E+00  2.010E+01  1.407E-01  1.568E+00
   1    3    3     1     3    7.5850E+01  5.6572E-01   7.5284E+01  0.000E+00  0.000E+00  0.000E+00  1.08412E+03  1.703E+00  2.005E+01  1.203E-01  1.568E+00
   1    3    4     1     4    7.5284E+01  5.2177E-01   7.4762E+01  0.000E+00  0.000E+00  0.000E+00  1.07911E+03  1.700E+00  2.000E+01  1.110E-01  1.567E+00
   1    4    5     2     1    7.2762E+01  4.1250E-01   7.2350E+01  0.000E+00  0.000E+00  0.000E+00  1.07422E+03  2.288E+00  1.200E+01  7.800E-02  1.763E+00
   1    5    6     2     2    7.2350E+01  3.1689E-01   7.2033E+01  0.000E+00  0.000E+00  0.000E+00  1.06879E+03  2.282E+00  1.200E+01  6.000E-02  1.761E+00
   1    6    6     2     3    7.2033E+01  3.1653E-01   7.1717E+01  0.000E+00  0.000E+00  0.000E+00  1.06407E+03  2.276E+00  1.200E+01  6.000E-02  1.759E+00
   1    7    6     2     4    7.1717E+01  3.1617E-01   7.1400E+01  0.000E+00  0.000E+00  0.000E+00  1.05934E+03  2.270E+00  1.200E+01  6.000E-02  1.757E+00
   1    8    6     2     5    7.1400E+01  3.1581E-01   7.1085E+01  0.000E+00  0.000E+00  0.000E+00  1.05462E+03  2.264E+00  1.200E+01  6.000E-02  1.755E+00
   1    3    5     3     1    2.0000E+00  2.8252E-01   1.7175E+00  0.000E+00  0.000E+00  0.000E+00  1.07555E+03  1.909E+00  9.636E+00  7.227E-02  1.955E+00
   1    3    6     3     2    1.7175E+00  2.4905E-01   1.4684E+00  0.000E+00  0.000E+00  0.000E+00  1.07264E+03  1.727E+00  8.909E+00  6.682E-02  1.864E+00
   1    3    7     3     3    1.4684E+00  1.9718E-01   1.2712E+00  0.000E+00  0.000E+00  0.000E+00  1.06987E+03  1.555E+00  8.218E+00  5.547E-02  1.777E+00
   1    4    8     3     4    1.2712E+00  2.2567E-01   1.0456E+00  0.000E+00  0.000E+00  0.000E+00  1.06682E+03  1.364E+00  7.455E+00  6.709E-02  1.682E+00
   1    5    8     3     5    1.0456E+00  1.5790E-01   8.8768E-01  0.000E+00  0.000E+00  0.000E+00  1.06362E+03  1.164E+00  6.655E+00  4.991E-02  1.582E+00
   1    6    8     3     6    8.8768E-01  5.5980E-02   8.3170E-01  0.000E+00  0.000E+00  0.000E+00  1.06158E+03  1.036E+00  6.145E+00  1.844E-02  1.518E+00
   1    5   10     4     1    1.0000E+01  9.0919E-02   9.9091E+00  0.000E+00  0.000E+00  0.000E+00  1.07836E+03  6.368E-01  1.000E+01  2.500E-02  1.212E+00
   1    5    9     4     2    9.9091E+00  1.8158E-01   9.7275E+00  0.000E+00  0.000E+00  0.000E+00  1.07154E+03  6.315E-01  1.000E+01  5.000E-02  1.211E+00
   1    6    8     4     3    9.7275E+00  1.2689E-01   9.6006E+00  0.000E+00  0.000E+00  0.000E+00  1.06381E+03  6.256E-01  1.000E+01  3.500E-02  1.209E+00
   1    6    8     5     1    1.0432E+01  2.2686E-01   1.0205E+01  0.000E+00  0.000E+00  0.000E+00  1.05868E+03  6.790E-01  1.542E+01  6.166E-02  1.226E+00
   1    7    7     5     2    1.0205E+01  2.7894E-01   9.9265E+00  0.000E+00  0.000E+00  0.000E+00  1.05417E+03  6.732E-01  1.519E+01  7.594E-02  1.224E+00
   1    8    7     5     3    9.9265E+00  1.9221E-01   9.7343E+00  0.000E+00  0.000E+00  0.000E+00  1.04992E+03  6.676E-01  1.497E+01  5.241E-02  1.223E+00
   1    8    6     5     4    9.7343E+00  1.3577E-01   9.5985E+00  0.000E+00  0.000E+00  0.000E+00  1.04691E+03  6.637E-01  1.482E+01  3.706E-02  1.221E+00
   1    9    6     6     1    8.0683E+01  3.2780E-01   8.0355E+01  0.000E+00  0.000E+00  0.000E+00  1.04519E+03  2.463E+00  1.200E+01  6.000E-02  1.821E+00
   1   10    7     6     2    8.0355E+01  3.2743E-01   8.0028E+01  0.000E+00  0.000E+00  0.000E+00  1.04064E+03  2.457E+00  1.200E+01  6.000E-02  1.819E+00
   1   11    7     6     3    8.0028E+01  3.2707E-01   7.9701E+01  0.000E+00  0.000E+00  0.000E+00  1.03609E+03  2.451E+00  1.200E+01  6.000E-02  1.817E+00
   1   12    7     6     4    7.9701E+01  3.2671E-01   7.9374E+01  0.000E+00  0.000E+00  0.000E+00  1.03154E+03  2.445E+00  1.200E+01  6.000E-02  1.815E+00
   1   13    7     6     5    7.9374E+01  2.6847E-02   7.9347E+01  0.000E+00  0.000E+00  0.000E+00  1.02835E+03  2.442E+00  1.200E+01  2.400E-02  3.729E-01
   1   14    9     7     1    1.5000E+02  1.3318E+00   1.4867E+02  0.000E+00  0.000E+00  0.000E+00  1.03987E+03  2.288E+00  5.529E+01  5.593E-01  7.937E-01
   1   13    8     7     2    1.4867E+02  1.8024E+00   1.4687E+02  0.000E+00  0.000E+00  0.000E+00  1.03478E+03  2.279E+00  5.526E+01  6.148E-01  9.772E-01
   1   13    7     7     3    1.4687E+02  1.3727E+00   1.4549E+02  0.000E+00  0.000E+00  0.000E+00  1.02969E+03  2.271E+00  5.522E+01  5.585E-01  8.193E-01
   1   13    6     8     1    2.2484E+02  1.0254E+00   2.2382E+02  0.000E+00  0.000E+00  0.000E+00  1.02515E+03  3.276E+00  4.750E+01  4.840E-01  7.062E-01
   1   13    5     8     2    2.2382E+02  2.0255E-01   2.2361E+02  0.000E+00  0.000E+00  0.000E+00  1.01890E+03  3.272E+00  4.745E+01  4.835E-01  1.396E-01
   1   13    4     8     3    2.2361E+02 -2.0975E+00   2.2571E+02  0.000E+00  0.000E+00  0.000E+00  1.01265E+03  3.278E+00  4.752E+01  4.843E+00 -1.444E-01
   1   13    3     8     4    2.2571E+02 -3.2560E+00   2.2897E+02  0.000E+00  0.000E+00  0.000E+00  1.00642E+03  3.292E+00  4.774E+01  4.864E+00 -2.231E-01
   1   13    2     8     5    2.2897E+02 -2.6243E+00   2.3159E+02  0.000E+00  0.000E+00  0.000E+00  1.00018E+03  3.308E+00  4.797E+01  4.888E+00 -1.790E-01
   1   13    1     8     6    2.3159E+02 -2.0373E+00   2.3363E+02  0.000E+00  0.000E+00  0.000E+00  9.95196E+02  3.321E+00  4.815E+01  2.944E+00 -2.307E-01





UNSATURATED ZONE PACKAGE VOLUMETRIC BUDGET FOR  TIME STEP    30 STRESS PERIOD    7
  ------------------------------------------------------------------------------



     CUMULATIVE VOLUMES      L**3       RATES FOR THIS TIME STEP      L**3/T
     ------------------                 ------------------------

           IN:                                      IN:
           ---                                      ---
        INFILTRATION =   154923699.1204          INFILTRATION =          26.6074

          OUT:                                     OUT:
          ----                                     ----
              UZF ET =   137458130.9480                UZF ET =          26.6074
        UZF RECHARGE =      388459.6891          UZF RECHARGE =       0.0000E+00

            IN - OUT =    17077108.4833              IN - OUT =       0.0000E+00

          STORAGE:                                 STORAGE:
          --------                                 --------
      STORAGE CHANGE =    17077680.5489        STORAGE CHANGE =      -1.2746E-07

 PERCENT DISCREPANCY IS DIFFERENCE BETWEEN IN-OUT MINUS CHANGE IN STORAGE
 DIVIDED BY THE AVERAGE OF IN AND OUT TIMES 100

 PERCENT DISCREPANCY =          -0.00     PERCENT DISCREPANCY =           0.00






1
  VOLUMETRIC BUDGET FOR AGRICULTURAL FIELDS AT TIME STEP   30, STRESS PERIOD   7
  ------------------------------------------------------------------------------

     CUMULATIVE VOLUMES      L**3       RATES FOR THIS TIME STEP      L**3/T
     ------------------                 ------------------------

           IN:                                      IN:
           ---                                      ---
               AG WELLS  =    85300112.0000                 AG WELLS  =          22.1999
      DIVERSION SEGMENTS =           0.0000        DIVERSION SEGMENTS =           0.0000
           GW IRRIGATION =           0.0000             GW IRRIGATION =           0.0000
           SW IRRIGATION =           0.0000             SW IRRIGATION =           0.0000
        SYSTEM LOSSES GW =           0.0000          SYSTEM LOSSES GW =           0.0000
        SYSTEM LOSSES SW =           0.0000          SYSTEM LOSSES SW =           0.0000

                TOTAL IN =    85300112.0000                  TOTAL IN =          22.1999

          OUT:                                     OUT:
          ----                                     ----
               AG WELLS  =           0.0000                 AG WELLS  =           0.0000
      DIVERSION SEGMENTS =           0.0000        DIVERSION SEGMENTS =           0.0000
           GW IRRIGATION =    85300112.0000             GW IRRIGATION =          22.1999
           SW IRRIGATION =           0.0000             SW IRRIGATION =           0.0000
        SYSTEM LOSSES GW =           0.0000          SYSTEM LOSSES GW =           0.0000
        SYSTEM LOSSES SW =           0.0000          SYSTEM LOSSES SW =           0.0000

               TOTAL OUT =    85300112.0000                 TOTAL OUT =          22.1999

                IN - OUT =           0.0000                  IN - OUT =           0.0000

     PERCENT DISCREPANCY =           0.00         PERCENT DISCREPANCY =           0.00



1
  VOLUMETRIC BUDGET FOR ENTIRE MODEL AT END OF TIME STEP   30, STRESS PERIOD   7
  ------------------------------------------------------------------------------

     CUMULATIVE VOLUMES      L**3       RATES FOR THIS TIME STEP      L**3/T
     ------------------                 ------------------------

           IN:                                      IN:
           ---                                      ---
             STORAGE     =    91575096.0000               STORAGE     =          21.7668
       CONSTANT HEAD     =           0.0000         CONSTANT HEAD     =           0.0000
     HEAD DEP BOUNDS     =     4529104.5000       HEAD DEP BOUNDS     =           0.2855
      STREAM LEAKAGE     =   202197056.0000        STREAM LEAKAGE     =          13.3266
        UZF RECHARGE     =      388459.5938          UZF RECHARGE     =           0.0000
               GW ET     =           0.0000                 GW ET     =           0.0000
     SURFACE LEAKAGE     =           0.0000       SURFACE LEAKAGE     =           0.0000
           AG WELLS      =           0.0000             AG WELLS      =           0.0000

                TOTAL IN =   298689696.0000                  TOTAL IN =          35.3789

          OUT:                                     OUT:
          ----                                     ----
             STORAGE     =    42201348.0000               STORAGE     =           1.5912
       CONSTANT HEAD     =           0.0000         CONSTANT HEAD     =           0.0000
     HEAD DEP BOUNDS     =     4674185.5000       HEAD DEP BOUNDS     =           0.2997
      STREAM LEAKAGE     =   160742304.0000        STREAM LEAKAGE     =          10.0152
        UZF RECHARGE     =           0.0000          UZF RECHARGE     =           0.0000
               GW ET     =     5776190.5000                 GW ET     =           1.2728
     SURFACE LEAKAGE     =           0.0000       SURFACE LEAKAGE     =           0.0000
           AG WELLS      =    85300112.0000             AG WELLS      =          22.1999

               TOTAL OUT =   298694144.0000                 TOTAL OUT =          35.3789

                IN - OUT =       -4448.0000                  IN - OUT =      -6.1035E-05

     PERCENT DISCREPANCY =          -0.00         PERCENT DISCREPANCY =          -0.00






         TIME SUMMARY AT END OF TIME STEP   30 IN STRESS PERIOD    7
                    SECONDS     MINUTES      HOURS       DAYS        YEARS
                    -----------------------------------------------------------
   TIME STEP LENGTH  87667.      1461.1      24.352      1.0147     2.77799E-03
 STRESS PERIOD TIME 2.63000E+06  43833.      730.56      30.440     8.33397E-02
         TOTAL TIME 1.58664E+07 2.64440E+05  4407.3      183.64     0.50278    
1
1
                            STRESS PERIOD NO.    8, LENGTH =   2630000.    
                            -----------------------------------------------

                              NUMBER OF TIME STEPS =    30

                               MULTIPLIER FOR DELT =     1.000

                            INITIAL TIME STEP SIZE =   87666.66    

 REUSING NON-PARAMETER GHB CELLS FROM LAST STRESS PERIOD

      2 GHB CELLS

 REUSING STREAM SEGMENT DATA FROM LAST STRESS PERIOD



            AREAL INFILTRATION RATE
 READING ON UNIT   19 WITH FORMAT: (10F4.0)            

            1           2           3           4           5           6           7           8           9          10
 ........................................................................................................................
   1   1.2000E-09   0.000       0.000       0.000       0.000       0.000       0.000       0.000       0.000       0.000    
   2   2.1000E-09  2.0000E-09  8.0000E-10  8.5000E-09   0.000       0.000       0.000       0.000       0.000       0.000    
   3   5.0000E-10  1.1000E-09  8.8000E-09  5.5000E-09   0.000       0.000       0.000       0.000       0.000       0.000    
   4   8.5000E-09  1.1000E-09  1.1000E-09  1.1000E-09  2.0000E-09   0.000       0.000       0.000       0.000       0.000    
   5   8.5000E-09  1.1000E-09  1.1000E-09  1.1000E-09  1.1000E-09   0.000       0.000       0.000       0.000       0.000    
   6   8.5000E-09  5.2000E-09  2.1000E-09  1.1000E-09  1.5000E-09   0.000       0.000       0.000       0.000       0.000    
   7   8.5000E-09  5.2000E-09  2.1000E-09  1.2000E-09  2.0000E-09   0.000       0.000       0.000       0.000       0.000    
   8   5.0000E-10  5.2000E-09  2.1000E-09  1.2000E-09  5.0000E-09   0.000       0.000       0.000       0.000       0.000    
   9   5.0000E-10  5.2000E-09  2.1000E-09  1.2000E-09  5.0000E-09   0.000       0.000       0.000       0.000       0.000    
  10   5.0000E-10  5.2000E-09  2.1000E-09  1.2000E-09  5.8000E-09   0.000       0.000       0.000       0.000       0.000    
  11   1.0000E-10  1.1000E-09  1.1000E-09  1.2000E-09  5.0000E-09   0.000       0.000       0.000       0.000       0.000    
  12   1.1000E-09  1.1000E-09  1.1000E-09  1.1000E-09  2.0000E-09   0.000       0.000       0.000       0.000       0.000    
  13   1.1000E-09  2.2000E-09  2.2000E-09  2.1000E-09  1.0000E-09   0.000       0.000       0.000       0.000       0.000    
  14   2.0000E-10  5.5000E-09  5.5000E-09  5.2000E-09  1.0000E-09   0.000       0.000       0.000       0.000       0.000    
  15    0.000      8.8000E-09  8.8000E-09   0.000       0.000       0.000       0.000       0.000       0.000       0.000    

                  ET RATE =  4.000000E-07

 USING ET EXTINCTION DEPTH FROM PREVIOUS STRESS PERIOD. CURRENT PERIOD IS:       8

 USING EXTINCTION WATER CONTENT FROM PREVIOUS STRESS PERIOD. CURRENT PERIOD IS:       8

 USING AIR ENTRY PRESSURE FROM PREVIOUS STRESS PERIOD. CURRENT PERIOD IS:       8

 USING ROOT PRESSURE HEAD FROM PREVIOUS STRESS PERIOD. CURRENT PERIOD IS:       8

 USING ROOT ACTIVITY FROM PREVIOUS STRESS PERIOD. CURRENT PERIOD IS:       8

 PROCESSING AG STRESS PERIOD DATA

 READING AG STRESS PERIOD DATA

 READING IRRIGATION WELL

 END PROCESSING AG STRESS PERIOD DATA OPTIONS
 
 SOLVING FOR HEAD 
                                                   Max.-Head-Change                         Max.-Flux-Residual
  Residual-Control   Outer-Iter.   Inner-Iter.     Column Row Layer    Maximum-Head-Change  Column Row Layer    Maximum-Flux-Residual          L2-NORM 
          0                 1           2             4    7     1      -0.1671291484E+00       4    7    1        -0.8738900794E+01      0.2050726139E+02
          0                 2           2             4   13     1       0.1555879115E-02       4   13    1         0.1213334521E+00      0.2929075790E+00
          0                 3           2             5    8     1      -0.1235636013E-01       5    8    1        -0.6621533074E+00      0.1595529275E+01
          0                 4           2             4    7     1      -0.9069257908E-02       4    8    1        -0.5011908597E+00      0.1211738522E+01
          0                 5           2             4    7     1      -0.7454308347E-02       4    8    1        -0.4117607613E+00      0.9978925289E+00
          0                 6           2             4    7     1      -0.6148072133E-02       4    8    1        -0.3396126838E+00      0.8228266540E+00
          0                 7           2             4    7     1      -0.5097579604E-02       4    8    1        -0.2815782366E+00      0.6822736297E+00
          0                 8           2             4    7     1      -0.4243531481E-02       4    8    1        -0.2343988359E+00      0.5679700718E+00
          0                 9           2             4    7     1      -0.3543822789E-02       4    8    1        -0.1957462130E+00      0.4743225936E+00
          0                10           2             4    7     1      -0.2967066506E-02       4    8    1        -0.1638862136E+00      0.3971301044E+00
                                                   Max.-Head-Change                         Max.-Flux-Residual
  Residual-Control   Outer-Iter.   Inner-Iter.     Column Row Layer    Maximum-Head-Change  Column Row Layer    Maximum-Flux-Residual          L2-NORM 
          0                11           2             4    7     1      -0.2489349998E-02       4    8    1        -0.1374976472E+00      0.3331909377E+00
          0                12           2             4    7     1      -0.2092106430E-02       4    8    1        -0.1155546891E+00      0.2800210400E+00
          0                13           2             4    7     1      -0.1760715266E-02       4    8    1        -0.9724955893E-01      0.2356651295E+00
          0                14           2             4    7     1      -0.1483522054E-02       4    8    1        -0.8193838080E-01      0.1985637793E+00
          0                15           2             4    7     1      -0.1251170492E-02       4    8    1        -0.6910424935E-01      0.1674654180E+00
          0                16           2             4    7     1      -0.1056058462E-02       4    8    1        -0.5832723038E-01      0.1413498752E+00
          0                17           2             4    7     1      -0.8919815763E-03       4    8    1        -0.4926457594E-01      0.1193866376E+00
          0                18           2             4    7     1      -0.7538027856E-03       4    8    1        -0.4163244592E-01      0.1008917247E+00
          0                19           2             4    7     1      -0.6373253862E-03       4    8    1        -0.3519900816E-01      0.8530306295E-01
          0                20           2             4    7     1      -0.5390731899E-03       4    8    1        -0.2977231143E-01      0.7215138248E-01
                                                   Max.-Head-Change                         Max.-Flux-Residual
  Residual-Control   Outer-Iter.   Inner-Iter.     Column Row Layer    Maximum-Head-Change  Column Row Layer    Maximum-Flux-Residual          L2-NORM 
          0                21           2             4    7     1      -0.4561132627E-03       4    8    1        -0.2519027932E-01      0.6104757940E-01
          0                22           2             4    7     1      -0.3860249689E-03       4    8    1        -0.2131921204E-01      0.5166663371E-01
          0                23           2             4    7     1      -0.3267813218E-03       4    8    1        -0.1804715791E-01      0.4373681139E-01
          0                24           2             4    7     1      -0.2766859179E-03       4    8    1        -0.1528037174E-01      0.3703234080E-01
          0                25           2             4    7     1      -0.2343211700E-03       4    8    1        -0.1294059112E-01      0.3136138909E-01
          0                26           2             4    7     1      -0.1984665300E-03       4    8    1        -0.1096037822E-01      0.2656264999E-01
          0                27           2             4    7     1      -0.1681175454E-03       4    8    1        -0.9284264170E-02      0.2249979284E-01
          0                28           2             4    7     1      -0.1424340795E-03       4    8    1        -0.7865831242E-02      0.1906173748E-01
          0                29           2             4    7     1      -0.1206728992E-03       4    8    1        -0.6664027616E-02      0.1614892797E-01
          0                30           1             4    7     1      -0.1022256846E-03       4    8    1        -0.5645211504E-02      0.1368191269E-01
          0                31           1             4    7     1      -0.8663157190E-04       4    8    1        -0.4784041700E-02      0.1159343687E-01

    ------------------------------------------------
       NWT REQUIRED           31 OUTER ITERATIONS 
       AND A TOTAL OF         60 INNER ITERATIONS.
    ------------------------------------------------

 OUTPUT CONTROL FOR STRESS PERIOD    8   TIME STEP    1
    PRINT BUDGET
    SAVE BUDGET
 UBDSV1 SAVING "         STORAGE" ON UNIT 102 AT TIME STEP  1, STRESS PERIOD   8
 UBDSV2 SAVING "   CONSTANT HEAD" ON UNIT 102 AT TIME STEP  1, STRESS PERIOD   8
 UBDSV1 SAVING "FLOW RIGHT FACE " ON UNIT 102 AT TIME STEP  1, STRESS PERIOD   8
 UBDSV1 SAVING "FLOW FRONT FACE " ON UNIT 102 AT TIME STEP  1, STRESS PERIOD   8

  HEAD DEP BOUNDS   PERIOD    8   STEP     1
 BOUNDARY      1   LAYER   1   ROW    13   COL     1   RATE   -0.299665    
 BOUNDARY      2   LAYER   1   ROW    14   COL     9   RATE    0.285484    



 STREAM LISTING     PERIOD      8   STEP        1

 LAYER ROW COL. STREAM  RCH.  FLOW INTO     FLOW TO   FLOW OUT OF   OVRLND.     DIRECT     STREAM       STREAM     STREAM     STREAM   STREAMBED  STREAMBED
                SEG.NO.  NO.  STRM. RCH.    AQUIFER    STRM. RCH.    RUNOFF     PRECIP       ET          HEAD       DEPTH      WIDTH   CONDCTNC.   GRADIENT

   1    1    1     1     1    7.5000E+01  4.2232E-01   7.4578E+01  0.000E+00  0.000E+00  0.000E+00  1.09475E+03  1.698E+00  1.998E+01  8.990E-02  1.566E+00
   1    2    2     1     2    7.4578E+01  6.5422E-01   7.3924E+01  0.000E+00  0.000E+00  0.000E+00  1.08975E+03  1.692E+00  1.992E+01  1.394E-01  1.564E+00
   1    3    3     1     3    7.3924E+01  5.5813E-01   7.3366E+01  0.000E+00  0.000E+00  0.000E+00  1.08410E+03  1.685E+00  1.985E+01  1.191E-01  1.562E+00
   1    3    4     1     4    7.3366E+01  5.1412E-01   7.2852E+01  0.000E+00  0.000E+00  0.000E+00  1.07909E+03  1.679E+00  1.980E+01  1.099E-01  1.560E+00
   1    4    5     2     1    7.0852E+01  4.0967E-01   7.0442E+01  0.000E+00  0.000E+00  0.000E+00  1.07419E+03  2.252E+00  1.200E+01  7.800E-02  1.751E+00
   1    5    6     2     2    7.0442E+01  3.1471E-01   7.0127E+01  0.000E+00  0.000E+00  0.000E+00  1.06875E+03  2.245E+00  1.200E+01  6.000E-02  1.748E+00
   1    6    6     2     3    7.0127E+01  3.1435E-01   6.9813E+01  0.000E+00  0.000E+00  0.000E+00  1.06403E+03  2.239E+00  1.200E+01  6.000E-02  1.746E+00
   1    7    6     2     4    6.9813E+01  3.1399E-01   6.9499E+01  0.000E+00  0.000E+00  0.000E+00  1.05931E+03  2.233E+00  1.200E+01  6.000E-02  1.744E+00
   1    8    6     2     5    6.9499E+01  3.1363E-01   6.9185E+01  0.000E+00  0.000E+00  0.000E+00  1.05459E+03  2.227E+00  1.200E+01  6.000E-02  1.742E+00
   1    3    5     3     1    2.0000E+00  2.8252E-01   1.7175E+00  0.000E+00  0.000E+00  0.000E+00  1.07555E+03  1.909E+00  9.636E+00  7.227E-02  1.955E+00
   1    3    6     3     2    1.7175E+00  2.4905E-01   1.4684E+00  0.000E+00  0.000E+00  0.000E+00  1.07264E+03  1.727E+00  8.909E+00  6.682E-02  1.864E+00
   1    3    7     3     3    1.4684E+00  1.9718E-01   1.2712E+00  0.000E+00  0.000E+00  0.000E+00  1.06987E+03  1.555E+00  8.218E+00  5.547E-02  1.777E+00
   1    4    8     3     4    1.2712E+00  2.2567E-01   1.0456E+00  0.000E+00  0.000E+00  0.000E+00  1.06682E+03  1.364E+00  7.455E+00  6.709E-02  1.682E+00
   1    5    8     3     5    1.0456E+00  1.5790E-01   8.8768E-01  0.000E+00  0.000E+00  0.000E+00  1.06362E+03  1.164E+00  6.655E+00  4.991E-02  1.582E+00
   1    6    8     3     6    8.8768E-01  5.5980E-02   8.3170E-01  0.000E+00  0.000E+00  0.000E+00  1.06158E+03  1.036E+00  6.145E+00  1.844E-02  1.518E+00
   1    5   10     4     1    1.0000E+01  9.0919E-02   9.9091E+00  0.000E+00  0.000E+00  0.000E+00  1.07836E+03  6.368E-01  1.000E+01  2.500E-02  1.212E+00
   1    5    9     4     2    9.9091E+00  1.8158E-01   9.7275E+00  0.000E+00  0.000E+00  0.000E+00  1.07154E+03  6.315E-01  1.000E+01  5.000E-02  1.211E+00
   1    6    8     4     3    9.7275E+00  1.2689E-01   9.6006E+00  0.000E+00  0.000E+00  0.000E+00  1.06381E+03  6.256E-01  1.000E+01  3.500E-02  1.209E+00
   1    6    8     5     1    1.0432E+01  2.2686E-01   1.0205E+01  0.000E+00  0.000E+00  0.000E+00  1.05868E+03  6.790E-01  1.542E+01  6.166E-02  1.226E+00
   1    7    7     5     2    1.0205E+01  2.7894E-01   9.9265E+00  0.000E+00  0.000E+00  0.000E+00  1.05417E+03  6.732E-01  1.519E+01  7.594E-02  1.224E+00
   1    8    7     5     3    9.9265E+00  1.9221E-01   9.7343E+00  0.000E+00  0.000E+00  0.000E+00  1.04992E+03  6.676E-01  1.497E+01  5.241E-02  1.223E+00
   1    8    6     5     4    9.7343E+00  1.3577E-01   9.5985E+00  0.000E+00  0.000E+00  0.000E+00  1.04691E+03  6.637E-01  1.482E+01  3.706E-02  1.221E+00
   1    9    6     6     1    7.8784E+01  3.2569E-01   7.8458E+01  0.000E+00  0.000E+00  0.000E+00  1.04516E+03  2.428E+00  1.200E+01  6.000E-02  1.809E+00
   1   10    7     6     2    7.8458E+01  3.2533E-01   7.8133E+01  0.000E+00  0.000E+00  0.000E+00  1.04060E+03  2.422E+00  1.200E+01  6.000E-02  1.807E+00
   1   11    7     6     3    7.8133E+01  3.2497E-01   7.7808E+01  0.000E+00  0.000E+00  0.000E+00  1.03605E+03  2.416E+00  1.200E+01  6.000E-02  1.805E+00
   1   12    7     6     4    7.7808E+01  3.2461E-01   7.7483E+01  0.000E+00  0.000E+00  0.000E+00  1.03150E+03  2.410E+00  1.200E+01  6.000E-02  1.803E+00
   1   13    7     6     5    7.7483E+01  2.5993E-02   7.7457E+01  0.000E+00  0.000E+00  0.000E+00  1.02832E+03  2.407E+00  1.200E+01  2.400E-02  3.610E-01
   1   14    9     7     1    1.5000E+02  1.3318E+00   1.4867E+02  0.000E+00  0.000E+00  0.000E+00  1.03987E+03  2.288E+00  5.529E+01  5.593E-01  7.937E-01
   1   13    8     7     2    1.4867E+02  1.8022E+00   1.4687E+02  0.000E+00  0.000E+00  0.000E+00  1.03478E+03  2.279E+00  5.526E+01  6.148E-01  9.772E-01
   1   13    7     7     3    1.4687E+02  1.3724E+00   1.4549E+02  0.000E+00  0.000E+00  0.000E+00  1.02969E+03  2.271E+00  5.522E+01  5.585E-01  8.191E-01
   1   13    6     8     1    2.2295E+02  1.0171E+00   2.2193E+02  0.000E+00  0.000E+00  0.000E+00  1.02514E+03  3.265E+00  4.735E+01  4.825E-01  7.027E-01
   1   13    5     8     2    2.2193E+02  1.9708E-01   2.2174E+02  0.000E+00  0.000E+00  0.000E+00  1.01889E+03  3.262E+00  4.730E+01  4.820E-01  1.363E-01
   1   13    4     8     3    2.2174E+02 -2.0702E+00   2.2381E+02  0.000E+00  0.000E+00  0.000E+00  1.01264E+03  3.267E+00  4.737E+01  4.828E+00 -1.429E-01
   1   13    3     8     4    2.2381E+02 -3.2249E+00   2.2703E+02  0.000E+00  0.000E+00  0.000E+00  1.00641E+03  3.282E+00  4.758E+01  4.849E+00 -2.217E-01
   1   13    2     8     5    2.2703E+02 -2.6526E+00   2.2968E+02  0.000E+00  0.000E+00  0.000E+00  1.00017E+03  3.298E+00  4.782E+01  4.873E+00 -1.815E-01
   1   13    1     8     6    2.2968E+02 -2.0560E+00   2.3174E+02  0.000E+00  0.000E+00  0.000E+00  9.95185E+02  3.310E+00  4.800E+01  2.935E+00 -2.335E-01



 UBDSV3 SAVING "           GW ET" ON UNIT  61 AT TIME STEP  1, STRESS PERIOD   8
 UBDSV3 SAVING "    UZF RECHARGE" ON UNIT  61 AT TIME STEP  1, STRESS PERIOD   8
 UBDSV3 SAVING " SURFACE LEAKAGE" ON UNIT  61 AT TIME STEP  1, STRESS PERIOD   8
 UBDSV3 SAVING "       HORT+DUNN" ON UNIT  61 AT TIME STEP  1, STRESS PERIOD   8
 UBDSV3 SAVING "  STORAGE CHANGE" ON UNIT  61 AT TIME STEP  1, STRESS PERIOD   8


UNSATURATED ZONE PACKAGE VOLUMETRIC BUDGET FOR  TIME STEP     1 STRESS PERIOD    8
  ------------------------------------------------------------------------------



     CUMULATIVE VOLUMES      L**3       RATES FOR THIS TIME STEP      L**3/T
     ------------------                 ------------------------

           IN:                                      IN:
           ---                                      ---
        INFILTRATION =   162942076.6897          INFILTRATION =          91.4644

          OUT:                                     OUT:
          ----                                     ----
              UZF ET =   143075986.2048                UZF ET =          64.0820
        UZF RECHARGE =      388459.6891          UZF RECHARGE =       0.0000E+00

            IN - OUT =    19477630.7958              IN - OUT =          27.3824

          STORAGE:                                 STORAGE:
          --------                                 --------
      STORAGE CHANGE =    19478202.9059        STORAGE CHANGE =          27.3824

 PERCENT DISCREPANCY IS DIFFERENCE BETWEEN IN-OUT MINUS CHANGE IN STORAGE
 DIVIDED BY THE AVERAGE OF IN AND OUT TIMES 100

 PERCENT DISCREPANCY =          -0.00     PERCENT DISCREPANCY =           0.00






 

            AG WELLS      PERIOD    8   STEP   1
 AG WELL      1   LAYER   1   ROW     6   COL     4   RATE    -14.5321    
 AG WELL      2   LAYER   1   ROW     6   COL     5   RATE    -14.5221    
 AG WELL      3   LAYER   1   ROW     7   COL     4   RATE    -14.5295    
 AG WELL      4   LAYER   1   ROW     7   COL     5   RATE    -14.5096    
 AG WELL      5   LAYER   1   ROW     8   COL     4   RATE    -14.5295    
 AG WELL      6   LAYER   1   ROW     8   COL     5   RATE    -14.4339    
 
 

        GW IRRIGATION     PERIOD    8   STEP   1
 AG WELL      1   ROW     6   COL     4   RATE     14.5321    
 AG WELL      2   ROW     6   COL     5   RATE     14.5221    
 AG WELL      3   ROW     7   COL     4   RATE     14.5295    
 AG WELL      4   ROW     7   COL     5   RATE     14.5096    
 AG WELL      5   ROW     8   COL     4   RATE     14.5295    
 AG WELL      6   ROW     8   COL     5   RATE     14.4339    
 
1
  VOLUMETRIC BUDGET FOR AGRICULTURAL FIELDS AT TIME STEP    1, STRESS PERIOD   8
  ------------------------------------------------------------------------------

     CUMULATIVE VOLUMES      L**3       RATES FOR THIS TIME STEP      L**3/T
     ------------------                 ------------------------

           IN:                                      IN:
           ---                                      ---
               AG WELLS  =    92932096.0000                 AG WELLS  =          87.0569
      DIVERSION SEGMENTS =           0.0000        DIVERSION SEGMENTS =           0.0000
           GW IRRIGATION =           0.0000             GW IRRIGATION =           0.0000
           SW IRRIGATION =           0.0000             SW IRRIGATION =           0.0000
        SYSTEM LOSSES GW =           0.0000          SYSTEM LOSSES GW =           0.0000
        SYSTEM LOSSES SW =           0.0000          SYSTEM LOSSES SW =           0.0000

                TOTAL IN =    92932096.0000                  TOTAL IN =          87.0569

          OUT:                                     OUT:
          ----                                     ----
               AG WELLS  =           0.0000                 AG WELLS  =           0.0000
      DIVERSION SEGMENTS =           0.0000        DIVERSION SEGMENTS =           0.0000
           GW IRRIGATION =    92932096.0000             GW IRRIGATION =          87.0569
           SW IRRIGATION =           0.0000             SW IRRIGATION =           0.0000
        SYSTEM LOSSES GW =           0.0000          SYSTEM LOSSES GW =           0.0000
        SYSTEM LOSSES SW =           0.0000          SYSTEM LOSSES SW =           0.0000

               TOTAL OUT =    92932096.0000                 TOTAL OUT =          87.0569

                IN - OUT =           0.0000                  IN - OUT =           0.0000

     PERCENT DISCREPANCY =           0.00         PERCENT DISCREPANCY =           0.00



1
  VOLUMETRIC BUDGET FOR ENTIRE MODEL AT END OF TIME STEP    1, STRESS PERIOD   8
  ------------------------------------------------------------------------------

     CUMULATIVE VOLUMES      L**3       RATES FOR THIS TIME STEP      L**3/T
     ------------------                 ------------------------

           IN:                                      IN:
           ---                                      ---
             STORAGE     =    99304808.0000               STORAGE     =          88.1716
       CONSTANT HEAD     =           0.0000         CONSTANT HEAD     =           0.0000
     HEAD DEP BOUNDS     =     4554132.0000       HEAD DEP BOUNDS     =           0.2855
      STREAM LEAKAGE     =   203359856.0000        STREAM LEAKAGE     =          13.2638
        UZF RECHARGE     =      388459.5938          UZF RECHARGE     =           0.0000
               GW ET     =           0.0000                 GW ET     =           0.0000
     SURFACE LEAKAGE     =           0.0000       SURFACE LEAKAGE     =           0.0000
           AG WELLS      =           0.0000             AG WELLS      =           0.0000

                TOTAL IN =   307607264.0000                  TOTAL IN =         101.7209

          OUT:                                     OUT:
          ----                                     ----
             STORAGE     =    42334504.0000               STORAGE     =           1.5189
       CONSTANT HEAD     =           0.0000         CONSTANT HEAD     =           0.0000
     HEAD DEP BOUNDS     =     4700456.0000       HEAD DEP BOUNDS     =           0.2997
      STREAM LEAKAGE     =   161619296.0000        STREAM LEAKAGE     =          10.0037
        UZF RECHARGE     =           0.0000          UZF RECHARGE     =           0.0000
               GW ET     =     6025194.0000                 GW ET     =           2.8403
     SURFACE LEAKAGE     =           0.0000       SURFACE LEAKAGE     =           0.0000
           AG WELLS      =    92932096.0000             AG WELLS      =          87.0569

               TOTAL OUT =   307611552.0000                 TOTAL OUT =         101.7195

                IN - OUT =       -4288.0000                  IN - OUT =       1.4343E-03

     PERCENT DISCREPANCY =          -0.00         PERCENT DISCREPANCY =           0.00






         TIME SUMMARY AT END OF TIME STEP    1 IN STRESS PERIOD    8
                    SECONDS     MINUTES      HOURS       DAYS        YEARS
                    -----------------------------------------------------------
   TIME STEP LENGTH  87667.      1461.1      24.352      1.0147     2.77799E-03
 STRESS PERIOD TIME  87667.      1461.1      24.352      1.0147     2.77799E-03
         TOTAL TIME 1.59541E+07 2.65901E+05  4431.7      184.65     0.50555    
1
 
 SOLVING FOR HEAD 
                                                   Max.-Head-Change                         Max.-Flux-Residual
  Residual-Control   Outer-Iter.   Inner-Iter.     Column Row Layer    Maximum-Head-Change  Column Row Layer    Maximum-Flux-Residual          L2-NORM 
          0                 1           2             4    7     1      -0.1660602830E+00       4    7    1        -0.8688761309E+01      0.2005072841E+02
          0                 2           2             6    7     1       0.1829099605E-02       6    7    1         0.1003822625E+00      0.2973330379E+00
          0                 3           2             5    6     1      -0.1200832744E-01       4    7    1        -0.6498152574E+00      0.1580901088E+01
          0                 4           2             4    7     1      -0.9014448423E-02       5    7    1        -0.4987333731E+00      0.1188615958E+01
          0                 5           2             4    7     1      -0.7410938876E-02       5    7    1        -0.4097185116E+00      0.9811328200E+00
          0                 6           2             4    7     1      -0.6113360903E-02       5    7    1        -0.3379975879E+00      0.8089904499E+00
          0                 7           2             4    7     1      -0.5069488964E-02       5    7    1        -0.2802761043E+00      0.6709571552E+00
          0                 8           2             4    7     1      -0.4220581742E-02       5    7    1        -0.2333389180E+00      0.5586338625E+00
          0                 9           2             4    7     1      -0.3524948402E-02       5    7    1        -0.1948770968E+00      0.4665840795E+00
          0                10           2             4    7     1      -0.2951470445E-02       5    7    1        -0.1631699494E+00      0.3906902099E+00
                                                   Max.-Head-Change                         Max.-Flux-Residual
  Residual-Control   Outer-Iter.   Inner-Iter.     Column Row Layer    Maximum-Head-Change  Column Row Layer    Maximum-Flux-Residual          L2-NORM 
          0                11           2             4    7     1      -0.2476409698E-02       5    7    1        -0.1369046834E+00      0.3278158073E+00
          0                12           2             4    7     1      -0.2081309600E-02       5    7    1        -0.1150615887E+00      0.2755215139E+00
          0                13           2             4    7     1      -0.1751695802E-02       5    7    1        -0.9683743783E-01      0.2318912961E+00
          0                14           2             4    7     1      -0.1475976136E-02       5    7    1        -0.8159412769E-01      0.1953940400E+00
          0                15           2             4    7     1      -0.1244858449E-02       5    7    1        -0.6881679735E-01      0.1647998203E+00
          0                16           2             4    7     1      -0.1050754605E-02       5    7    1        -0.5808591854E-01      0.1391045711E+00
          0                17           2             4    7     1      -0.8874932635E-03       5    7    1        -0.4906025483E-01      0.1174917814E+00
          0                18           2             4    7     1      -0.7500204901E-03       5    7    1        -0.4146036338E-01      0.9929267703E-01
          0                19           2             4    7     1      -0.6341527295E-03       5    7    1        -0.3505493292E-01      0.8395354915E-01
          0                20           2             4    7     1      -0.5363967774E-03       5    7    1        -0.2965082699E-01      0.7101199138E-01
                                                   Max.-Head-Change                         Max.-Flux-Residual
  Residual-Control   Outer-Iter.   Inner-Iter.     Column Row Layer    Maximum-Head-Change  Column Row Layer    Maximum-Flux-Residual          L2-NORM 
          0                21           2             4    7     1      -0.4538534467E-03       5    7    1        -0.2508775068E-01      0.6008428540E-01
          0                22           2             4    7     1      -0.3841010103E-03       5    7    1        -0.2123273673E-01      0.5085133199E-01
          0                23           2             4    7     1      -0.3251628755E-03       5    7    1        -0.1797368458E-01      0.4304709895E-01
          0                24           2             4    7     1      -0.2753238216E-03       5    7    1        -0.1521865931E-01      0.3644908754E-01
          0                25           2             4    7     1      -0.2331670439E-03       5    7    1        -0.1288828911E-01      0.3086801437E-01
          0                26           2             4    7     1      -0.1974887327E-03       5    7    1        -0.1091606261E-01      0.2614460291E-01
          0                27           2             4    7     1      -0.1672837817E-03       5    7    1        -0.9246410076E-02      0.2214580697E-01
          0                28           2             4    7     1      -0.1417118042E-03       5    7    1        -0.7832870489E-02      0.1876038562E-01
          0                29           2             4    7     1      -0.1200639489E-03       5    7    1        -0.6636255852E-02      0.1589449311E-01
          0                30           1             4    7     1      -0.1017296904E-03       5    7    1        -0.5622815705E-02      0.1346726939E-01
          0                31           1             4    7     1      -0.8619818540E-04       5    7    1        -0.4764299493E-02      0.1141110067E-01

    ------------------------------------------------
       NWT REQUIRED           31 OUTER ITERATIONS 
       AND A TOTAL OF         60 INNER ITERATIONS.
    ------------------------------------------------

 NO OUTPUT CONTROL FOR STRESS PERIOD    8   TIME STEP    2
 
 SOLVING FOR HEAD 
                                                   Max.-Head-Change                         Max.-Flux-Residual
  Residual-Control   Outer-Iter.   Inner-Iter.     Column Row Layer    Maximum-Head-Change  Column Row Layer    Maximum-Flux-Residual          L2-NORM 
          0                 1           2             4    7     1      -0.1643948496E+00       4    7    1        -0.8606311915E+01      0.1956647441E+02
          0                 2           2             6    7     1       0.2103024864E-02       6    7    1         0.1157141161E+00      0.3289940987E+00
          0                 3           2             5    7     1      -0.1222906451E-01       4    7    1        -0.6492472285E+00      0.1576169295E+01
          0                 4           2             4    7     1      -0.9014926021E-02       4    7    1        -0.4991283948E+00      0.1141992137E+01
          0                 5           2             4    7     1      -0.7410942616E-02       4    7    1        -0.4100619764E+00      0.9495862722E+00
          0                 6           2             4    7     1      -0.6113379847E-02       4    7    1        -0.3382839100E+00      0.7823919462E+00
          0                 7           2             4    7     1      -0.5069504011E-02       4    7    1        -0.2805116996E+00      0.6490779759E+00
          0                 8           2             4    7     1      -0.4220594287E-02       4    7    1        -0.2335344362E+00      0.5404769032E+00
          0                 9           2             4    7     1      -0.3524958872E-02       4    7    1        -0.1950399015E+00      0.4514650275E+00
          0                10           2             4    7     1      -0.2951479208E-02       4    7    1        -0.1633059406E+00      0.3780612513E+00
                                                   Max.-Head-Change                         Max.-Flux-Residual
  Residual-Control   Outer-Iter.   Inner-Iter.     Column Row Layer    Maximum-Head-Change  Column Row Layer    Maximum-Flux-Residual          L2-NORM 
          0                11           2             4    7     1      -0.2476417047E-02       4    7    1        -0.1370185585E+00      0.3172406761E+00
          0                12           2             4    7     1      -0.2081315774E-02       4    7    1        -0.1151561839E+00      0.2666482540E+00
          0                13           2             4    7     1      -0.1751700998E-02       4    7    1        -0.9691778210E-01      0.2244337946E+00
          0                14           2             4    7     1      -0.1475980512E-02       4    7    1        -0.8166170920E-01      0.1891178594E+00
          0                15           2             4    7     1      -0.1244862140E-02       4    7    1        -0.6887373941E-01      0.1595118602E+00
          0                16           2             4    7     1      -0.1050757720E-02       4    7    1        -0.5813394017E-01      0.1346450038E+00
          0                17           2             4    7     1      -0.8874958944E-03       4    7    1        -0.4910078463E-01      0.1137279532E+00
          0                18           2             4    7     1      -0.7500227129E-03       4    7    1        -0.4149459190E-01      0.9611402103E-01
          0                19           2             4    7     1      -0.6341546083E-03       4    7    1        -0.3508385589E-01      0.8126759953E-01
          0                20           2             4    7     1      -0.5363983670E-03       4    7    1        -0.2967527857E-01      0.6874128097E-01
                                                   Max.-Head-Change                         Max.-Flux-Residual
  Residual-Control   Outer-Iter.   Inner-Iter.     Column Row Layer    Maximum-Head-Change  Column Row Layer    Maximum-Flux-Residual          L2-NORM 
          0                21           2             4    7     1      -0.4538547917E-03       4    7    1        -0.2510843011E-01      0.5816388027E-01
          0                22           2             4    7     1      -0.3841021485E-03       4    7    1        -0.2124927762E-01      0.4922668894E-01
          0                23           2             4    7     1      -0.3251638384E-03       4    7    1        -0.1798852719E-01      0.4167231971E-01
          0                24           2             4    7     1      -0.2753246377E-03       4    7    1        -0.1523118787E-01      0.3528547856E-01
          0                25           2             4    7     1      -0.2331677350E-03       4    7    1        -0.1289889705E-01      0.2988290920E-01
          0                26           2             4    7     1      -0.1974893174E-03       4    7    1        -0.1092504481E-01      0.2531046936E-01
          0                27           2             4    7     1      -0.1672842775E-03       4    7    1        -0.9254016577E-02      0.2143942856E-01
          0                28           2             4    7     1      -0.1417122239E-03       4    7    1        -0.7839312490E-02      0.1816214750E-01
          0                29           2             4    7     1      -0.1200643047E-03       4    7    1        -0.6641712184E-02      0.1538779178E-01
          0                30           1             4    7     1      -0.1017299912E-03       4    7    1        -0.5627437762E-02      0.1303804328E-01
          0                31           1             4    7     1      -0.8619844084E-04       4    7    1        -0.4768224498E-02      0.1104748245E-01

    ------------------------------------------------
       NWT REQUIRED           31 OUTER ITERATIONS 
       AND A TOTAL OF         60 INNER ITERATIONS.
    ------------------------------------------------

 NO OUTPUT CONTROL FOR STRESS PERIOD    8   TIME STEP    3
 
 SOLVING FOR HEAD 
                                                   Max.-Head-Change                         Max.-Flux-Residual
  Residual-Control   Outer-Iter.   Inner-Iter.     Column Row Layer    Maximum-Head-Change  Column Row Layer    Maximum-Flux-Residual          L2-NORM 
          0                 1           2             4    7     1      -0.1626588152E+00       4    7    1        -0.8519794682E+01      0.1911888026E+02
          0                 2           2             6    7     1       0.2364187833E-02       6    7    1         0.1303456128E+00      0.3734022101E+00
          0                 3           2             5    7     1      -0.1219506301E-01       4    7    1        -0.6486676672E+00      0.1571164856E+01
          0                 4           2             4    7     1      -0.9015424920E-02       4    7    1        -0.4991461352E+00      0.1142472836E+01
          0                 5           2             4    7     1      -0.7410946660E-02       4    7    1        -0.4100611884E+00      0.9495388528E+00
          0                 6           2             4    7     1      -0.6113399853E-02       4    7    1        -0.3382834091E+00      0.7823966531E+00
          0                 7           2             4    7     1      -0.5069519917E-02       4    7    1        -0.2805113287E+00      0.6490775043E+00
          0                 8           2             4    7     1      -0.4220607556E-02       4    7    1        -0.2335341218E+00      0.5404769486E+00
          0                 9           2             4    7     1      -0.3524969953E-02       4    7    1        -0.1950396405E+00      0.4514650215E+00
          0                10           2             4    7     1      -0.2951488486E-02       4    7    1        -0.1633057225E+00      0.3780612507E+00
                                                   Max.-Head-Change                         Max.-Flux-Residual
  Residual-Control   Outer-Iter.   Inner-Iter.     Column Row Layer    Maximum-Head-Change  Column Row Layer    Maximum-Flux-Residual          L2-NORM 
          0                11           2             4    7     1      -0.2476424832E-02       4    7    1        -0.1370183759E+00      0.3172406752E+00
          0                12           2             4    7     1      -0.2081322318E-02       4    7    1        -0.1151560307E+00      0.2666482533E+00
          0                13           2             4    7     1      -0.1751706504E-02       4    7    1        -0.9691765328E-01      0.2244337940E+00
          0                14           2             4    7     1      -0.1475985152E-02       4    7    1        -0.8166160081E-01      0.1891178589E+00
          0                15           2             4    7     1      -0.1244866053E-02       4    7    1        -0.6887364807E-01      0.1595118598E+00
          0                16           2             4    7     1      -0.1050761023E-02       4    7    1        -0.5813386315E-01      0.1346450035E+00
          0                17           2             4    7     1      -0.8874986843E-03       4    7    1        -0.4910071961E-01      0.1137279529E+00
          0                18           2             4    7     1      -0.7500250705E-03       4    7    1        -0.4149453700E-01      0.9611402078E-01
          0                19           2             4    7     1      -0.6341566024E-03       4    7    1        -0.3508380952E-01      0.8126759934E-01
          0                20           2             4    7     1      -0.5364000534E-03       4    7    1        -0.2967523934E-01      0.6874128077E-01
                                                   Max.-Head-Change                         Max.-Flux-Residual
  Residual-Control   Outer-Iter.   Inner-Iter.     Column Row Layer    Maximum-Head-Change  Column Row Layer    Maximum-Flux-Residual          L2-NORM 
          0                21           2             4    7     1      -0.4538562179E-03       4    7    1        -0.2510839692E-01      0.5816388011E-01
          0                22           2             4    7     1      -0.3841033556E-03       4    7    1        -0.2124924957E-01      0.4922668882E-01
          0                23           2             4    7     1      -0.3251648613E-03       4    7    1        -0.1798850347E-01      0.4167231962E-01
          0                24           2             4    7     1      -0.2753255028E-03       4    7    1        -0.1523116775E-01      0.3528547849E-01
          0                25           2             4    7     1      -0.2331684679E-03       4    7    1        -0.1289888004E-01      0.2988290913E-01
          0                26           2             4    7     1      -0.1974899385E-03       4    7    1        -0.1092503041E-01      0.2531046932E-01
          0                27           2             4    7     1      -0.1672848033E-03       4    7    1        -0.9254004377E-02      0.2143942853E-01
          0                28           2             4    7     1      -0.1417126695E-03       4    7    1        -0.7839302160E-02      0.1816214744E-01
          0                29           2             4    7     1      -0.1200646820E-03       4    7    1        -0.6641703430E-02      0.1538779174E-01
          0                30           1             4    7     1      -0.1017303114E-03       4    7    1        -0.5627430364E-02      0.1303804333E-01
          0                31           1             4    7     1      -0.8619871190E-04       4    7    1        -0.4768218203E-02      0.1104748243E-01

    ------------------------------------------------
       NWT REQUIRED           31 OUTER ITERATIONS 
       AND A TOTAL OF         60 INNER ITERATIONS.
    ------------------------------------------------

 NO OUTPUT CONTROL FOR STRESS PERIOD    8   TIME STEP    4
 
 SOLVING FOR HEAD 
                                                   Max.-Head-Change                         Max.-Flux-Residual
  Residual-Control   Outer-Iter.   Inner-Iter.     Column Row Layer    Maximum-Head-Change  Column Row Layer    Maximum-Flux-Residual          L2-NORM 
          0                 1           2             4    7     1      -0.1608589772E+00       4    7    1        -0.8429584281E+01      0.1870108119E+02
          0                 2           2             6    7     1       0.2612946605E-02       6    7    1         0.1442948831E+00      0.4228926625E+00
          0                 3           2             5    7     1      -0.1216159871E-01       4    7    1        -0.6480616027E+00      0.1566344021E+01
          0                 4           2             4    7     1      -0.9015942613E-02       4    7    1        -0.4991651056E+00      0.1142935759E+01
          0                 5           2             4    7     1      -0.7410951241E-02       4    7    1        -0.4100603477E+00      0.9494932437E+00
          0                 6           2             4    7     1      -0.6113420915E-02       4    7    1        -0.3382829206E+00      0.7824011805E+00
          0                 7           2             4    7     1      -0.5069536670E-02       4    7    1        -0.2805109644E+00      0.6490770524E+00
          0                 8           2             4    7     1      -0.4220621534E-02       4    7    1        -0.2335338133E+00      0.5404769934E+00
          0                 9           2             4    7     1      -0.3524981626E-02       4    7    1        -0.1950393843E+00      0.4514650168E+00
          0                10           2             4    7     1      -0.2951498260E-02       4    7    1        -0.1633055084E+00      0.3780612510E+00
                                                   Max.-Head-Change                         Max.-Flux-Residual
  Residual-Control   Outer-Iter.   Inner-Iter.     Column Row Layer    Maximum-Head-Change  Column Row Layer    Maximum-Flux-Residual          L2-NORM 
          0                11           2             4    7     1      -0.2476433032E-02       4    7    1        -0.1370181967E+00      0.3172406751E+00
          0                12           2             4    7     1      -0.2081329210E-02       4    7    1        -0.1151558803E+00      0.2666482532E+00
          0                13           2             4    7     1      -0.1751712305E-02       4    7    1        -0.9691752687E-01      0.2244337939E+00
          0                14           2             4    7     1      -0.1475990040E-02       4    7    1        -0.8166149443E-01      0.1891178589E+00
          0                15           2             4    7     1      -0.1244870175E-02       4    7    1        -0.6887355845E-01      0.1595118597E+00
          0                16           2             4    7     1      -0.1050764503E-02       4    7    1        -0.5813378756E-01      0.1346450034E+00
          0                17           2             4    7     1      -0.8875016229E-03       4    7    1        -0.4910065581E-01      0.1137279529E+00
          0                18           2             4    7     1      -0.7500275548E-03       4    7    1        -0.4149448314E-01      0.9611402078E-01
          0                19           2             4    7     1      -0.6341587019E-03       4    7    1        -0.3508376398E-01      0.8126759934E-01
          0                20           2             4    7     1      -0.5364018299E-03       4    7    1        -0.2967520087E-01      0.6874128079E-01
                                                   Max.-Head-Change                         Max.-Flux-Residual
  Residual-Control   Outer-Iter.   Inner-Iter.     Column Row Layer    Maximum-Head-Change  Column Row Layer    Maximum-Flux-Residual          L2-NORM 
          0                21           2             4    7     1      -0.4538577209E-03       4    7    1        -0.2510836436E-01      0.5816388010E-01
          0                22           2             4    7     1      -0.3841046271E-03       4    7    1        -0.2124922203E-01      0.4922668880E-01
          0                23           2             4    7     1      -0.3251659380E-03       4    7    1        -0.1798848017E-01      0.4167231960E-01
          0                24           2             4    7     1      -0.2753264147E-03       4    7    1        -0.1523114804E-01      0.3528547848E-01
          0                25           2             4    7     1      -0.2331692400E-03       4    7    1        -0.1289886335E-01      0.2988290912E-01
          0                26           2             4    7     1      -0.1974905927E-03       4    7    1        -0.1092501628E-01      0.2531046931E-01
          0                27           2             4    7     1      -0.1672853569E-03       4    7    1        -0.9253992398E-02      0.2143942848E-01
          0                28           2             4    7     1      -0.1417131389E-03       4    7    1        -0.7839292038E-02      0.1816214744E-01
          0                29           2             4    7     1      -0.1200650799E-03       4    7    1        -0.6641694855E-02      0.1538779173E-01
          0                30           1             4    7     1      -0.1017306482E-03       4    7    1        -0.5627423074E-02      0.1303804327E-01
          0                31           1             4    7     1      -0.8619899705E-04       4    7    1        -0.4768212036E-02      0.1104748237E-01

    ------------------------------------------------
       NWT REQUIRED           31 OUTER ITERATIONS 
       AND A TOTAL OF         60 INNER ITERATIONS.
    ------------------------------------------------

 OUTPUT CONTROL FOR STRESS PERIOD    8   TIME STEP    5
    PRINT BUDGET
    SAVE BUDGET
 UBDSV1 SAVING "         STORAGE" ON UNIT 102 AT TIME STEP  5, STRESS PERIOD   8
 UBDSV2 SAVING "   CONSTANT HEAD" ON UNIT 102 AT TIME STEP  5, STRESS PERIOD   8
 UBDSV1 SAVING "FLOW RIGHT FACE " ON UNIT 102 AT TIME STEP  5, STRESS PERIOD   8
 UBDSV1 SAVING "FLOW FRONT FACE " ON UNIT 102 AT TIME STEP  5, STRESS PERIOD   8

  HEAD DEP BOUNDS   PERIOD    8   STEP     5
 BOUNDARY      1   LAYER   1   ROW    13   COL     1   RATE   -0.299429    
 BOUNDARY      2   LAYER   1   ROW    14   COL     9   RATE    0.285483    



 STREAM LISTING     PERIOD      8   STEP        5

 LAYER ROW COL. STREAM  RCH.  FLOW INTO     FLOW TO   FLOW OUT OF   OVRLND.     DIRECT     STREAM       STREAM     STREAM     STREAM   STREAMBED  STREAMBED
                SEG.NO.  NO.  STRM. RCH.    AQUIFER    STRM. RCH.    RUNOFF     PRECIP       ET          HEAD       DEPTH      WIDTH   CONDCTNC.   GRADIENT

   1    1    1     1     1    7.5000E+01  4.2232E-01   7.4578E+01  0.000E+00  0.000E+00  0.000E+00  1.09475E+03  1.698E+00  1.998E+01  8.990E-02  1.566E+00
   1    2    2     1     2    7.4578E+01  6.5422E-01   7.3924E+01  0.000E+00  0.000E+00  0.000E+00  1.08975E+03  1.692E+00  1.992E+01  1.394E-01  1.564E+00
   1    3    3     1     3    7.3924E+01  5.5813E-01   7.3366E+01  0.000E+00  0.000E+00  0.000E+00  1.08410E+03  1.685E+00  1.985E+01  1.191E-01  1.562E+00
   1    3    4     1     4    7.3366E+01  5.1412E-01   7.2852E+01  0.000E+00  0.000E+00  0.000E+00  1.07909E+03  1.679E+00  1.980E+01  1.099E-01  1.560E+00
   1    4    5     2     1    7.0852E+01  4.0967E-01   7.0442E+01  0.000E+00  0.000E+00  0.000E+00  1.07419E+03  2.252E+00  1.200E+01  7.800E-02  1.751E+00
   1    5    6     2     2    7.0442E+01  3.1471E-01   7.0127E+01  0.000E+00  0.000E+00  0.000E+00  1.06875E+03  2.245E+00  1.200E+01  6.000E-02  1.748E+00
   1    6    6     2     3    7.0127E+01  3.1435E-01   6.9813E+01  0.000E+00  0.000E+00  0.000E+00  1.06403E+03  2.239E+00  1.200E+01  6.000E-02  1.746E+00
   1    7    6     2     4    6.9813E+01  3.1399E-01   6.9499E+01  0.000E+00  0.000E+00  0.000E+00  1.05931E+03  2.233E+00  1.200E+01  6.000E-02  1.744E+00
   1    8    6     2     5    6.9499E+01  3.1363E-01   6.9185E+01  0.000E+00  0.000E+00  0.000E+00  1.05459E+03  2.227E+00  1.200E+01  6.000E-02  1.742E+00
   1    3    5     3     1    2.0000E+00  2.8252E-01   1.7175E+00  0.000E+00  0.000E+00  0.000E+00  1.07555E+03  1.909E+00  9.636E+00  7.227E-02  1.955E+00
   1    3    6     3     2    1.7175E+00  2.4905E-01   1.4684E+00  0.000E+00  0.000E+00  0.000E+00  1.07264E+03  1.727E+00  8.909E+00  6.682E-02  1.864E+00
   1    3    7     3     3    1.4684E+00  1.9718E-01   1.2712E+00  0.000E+00  0.000E+00  0.000E+00  1.06987E+03  1.555E+00  8.218E+00  5.547E-02  1.777E+00
   1    4    8     3     4    1.2712E+00  2.2567E-01   1.0456E+00  0.000E+00  0.000E+00  0.000E+00  1.06682E+03  1.364E+00  7.455E+00  6.709E-02  1.682E+00
   1    5    8     3     5    1.0456E+00  1.5790E-01   8.8768E-01  0.000E+00  0.000E+00  0.000E+00  1.06362E+03  1.164E+00  6.655E+00  4.991E-02  1.582E+00
   1    6    8     3     6    8.8768E-01  5.5980E-02   8.3170E-01  0.000E+00  0.000E+00  0.000E+00  1.06158E+03  1.036E+00  6.145E+00  1.844E-02  1.518E+00
   1    5   10     4     1    1.0000E+01  9.0919E-02   9.9091E+00  0.000E+00  0.000E+00  0.000E+00  1.07836E+03  6.368E-01  1.000E+01  2.500E-02  1.212E+00
   1    5    9     4     2    9.9091E+00  1.8158E-01   9.7275E+00  0.000E+00  0.000E+00  0.000E+00  1.07154E+03  6.315E-01  1.000E+01  5.000E-02  1.211E+00
   1    6    8     4     3    9.7275E+00  1.2689E-01   9.6006E+00  0.000E+00  0.000E+00  0.000E+00  1.06381E+03  6.256E-01  1.000E+01  3.500E-02  1.209E+00
   1    6    8     5     1    1.0432E+01  2.2686E-01   1.0205E+01  0.000E+00  0.000E+00  0.000E+00  1.05868E+03  6.790E-01  1.542E+01  6.166E-02  1.226E+00
   1    7    7     5     2    1.0205E+01  2.7894E-01   9.9265E+00  0.000E+00  0.000E+00  0.000E+00  1.05417E+03  6.732E-01  1.519E+01  7.594E-02  1.224E+00
   1    8    7     5     3    9.9265E+00  1.9221E-01   9.7343E+00  0.000E+00  0.000E+00  0.000E+00  1.04992E+03  6.676E-01  1.497E+01  5.241E-02  1.223E+00
   1    8    6     5     4    9.7343E+00  1.3577E-01   9.5985E+00  0.000E+00  0.000E+00  0.000E+00  1.04691E+03  6.637E-01  1.482E+01  3.706E-02  1.221E+00
   1    9    6     6     1    7.8784E+01  3.2569E-01   7.8458E+01  0.000E+00  0.000E+00  0.000E+00  1.04516E+03  2.428E+00  1.200E+01  6.000E-02  1.809E+00
   1   10    7     6     2    7.8458E+01  3.2533E-01   7.8133E+01  0.000E+00  0.000E+00  0.000E+00  1.04060E+03  2.422E+00  1.200E+01  6.000E-02  1.807E+00
   1   11    7     6     3    7.8133E+01  3.2497E-01   7.7808E+01  0.000E+00  0.000E+00  0.000E+00  1.03605E+03  2.416E+00  1.200E+01  6.000E-02  1.805E+00
   1   12    7     6     4    7.7808E+01  3.2461E-01   7.7483E+01  0.000E+00  0.000E+00  0.000E+00  1.03150E+03  2.410E+00  1.200E+01  6.000E-02  1.803E+00
   1   13    7     6     5    7.7483E+01  2.5947E-02   7.7457E+01  0.000E+00  0.000E+00  0.000E+00  1.02832E+03  2.407E+00  1.200E+01  2.400E-02  3.604E-01
   1   14    9     7     1    1.5000E+02  1.3318E+00   1.4867E+02  0.000E+00  0.000E+00  0.000E+00  1.03987E+03  2.288E+00  5.529E+01  5.593E-01  7.937E-01
   1   13    8     7     2    1.4867E+02  1.8016E+00   1.4687E+02  0.000E+00  0.000E+00  0.000E+00  1.03478E+03  2.279E+00  5.526E+01  6.148E-01  9.768E-01
   1   13    7     7     3    1.4687E+02  1.3713E+00   1.4550E+02  0.000E+00  0.000E+00  0.000E+00  1.02969E+03  2.271E+00  5.522E+01  5.585E-01  8.185E-01
   1   13    6     8     1    2.2295E+02  1.0170E+00   2.2194E+02  0.000E+00  0.000E+00  0.000E+00  1.02514E+03  3.265E+00  4.735E+01  4.825E-01  7.026E-01
   1   13    5     8     2    2.2194E+02  1.9796E-01   2.2174E+02  0.000E+00  0.000E+00  0.000E+00  1.01889E+03  3.262E+00  4.730E+01  4.820E-01  1.369E-01
   1   13    4     8     3    2.2174E+02 -1.9513E+00   2.2369E+02  0.000E+00  0.000E+00  0.000E+00  1.01264E+03  3.267E+00  4.737E+01  4.827E+00 -1.347E-01
   1   13    3     8     4    2.2369E+02 -3.1057E+00   2.2679E+02  0.000E+00  0.000E+00  0.000E+00  1.00641E+03  3.281E+00  4.757E+01  4.848E+00 -2.136E-01
   1   13    2     8     5    2.2679E+02 -2.6102E+00   2.2940E+02  0.000E+00  0.000E+00  0.000E+00  1.00017E+03  3.296E+00  4.780E+01  4.871E+00 -1.786E-01
   1   13    1     8     6    2.2940E+02 -2.0413E+00   2.3145E+02  0.000E+00  0.000E+00  0.000E+00  9.95184E+02  3.309E+00  4.798E+01  2.933E+00 -2.320E-01



 UBDSV3 SAVING "           GW ET" ON UNIT  61 AT TIME STEP  5, STRESS PERIOD   8
 UBDSV3 SAVING "    UZF RECHARGE" ON UNIT  61 AT TIME STEP  5, STRESS PERIOD   8
 UBDSV3 SAVING " SURFACE LEAKAGE" ON UNIT  61 AT TIME STEP  5, STRESS PERIOD   8
 UBDSV3 SAVING "       HORT+DUNN" ON UNIT  61 AT TIME STEP  5, STRESS PERIOD   8
 UBDSV3 SAVING "  STORAGE CHANGE" ON UNIT  61 AT TIME STEP  5, STRESS PERIOD   8


UNSATURATED ZONE PACKAGE VOLUMETRIC BUDGET FOR  TIME STEP     5 STRESS PERIOD    8
  ------------------------------------------------------------------------------



     CUMULATIVE VOLUMES      L**3       RATES FOR THIS TIME STEP      L**3/T
     ------------------                 ------------------------

           IN:                                      IN:
           ---                                      ---
        INFILTRATION =   195015930.9670          INFILTRATION =          91.4654

          OUT:                                     OUT:
          ----                                     ----
              UZF ET =   165547459.4822                UZF ET =          64.0822
        UZF RECHARGE =      388459.6891          UZF RECHARGE =       0.0000E+00

            IN - OUT =    29080011.7958              IN - OUT =          27.3832

          STORAGE:                                 STORAGE:
          --------                                 --------
      STORAGE CHANGE =    29080583.2903        STORAGE CHANGE =          27.3832

 PERCENT DISCREPANCY IS DIFFERENCE BETWEEN IN-OUT MINUS CHANGE IN STORAGE
 DIVIDED BY THE AVERAGE OF IN AND OUT TIMES 100

 PERCENT DISCREPANCY =          -0.00     PERCENT DISCREPANCY =           0.00






 

            AG WELLS      PERIOD    8   STEP   5
 AG WELL      1   LAYER   1   ROW     6   COL     4   RATE    -14.5321    
 AG WELL      2   LAYER   1   ROW     6   COL     5   RATE    -14.5221    
 AG WELL      3   LAYER   1   ROW     7   COL     4   RATE    -14.5296    
 AG WELL      4   LAYER   1   ROW     7   COL     5   RATE    -14.5096    
 AG WELL      5   LAYER   1   ROW     8   COL     4   RATE    -14.5296    
 AG WELL      6   LAYER   1   ROW     8   COL     5   RATE    -14.4346    
 
 

        GW IRRIGATION     PERIOD    8   STEP   5
 AG WELL      1   ROW     6   COL     4   RATE     14.5321    
 AG WELL      2   ROW     6   COL     5   RATE     14.5221    
 AG WELL      3   ROW     7   COL     4   RATE     14.5296    
 AG WELL      4   ROW     7   COL     5   RATE     14.5096    
 AG WELL      5   ROW     8   COL     4   RATE     14.5296    
 AG WELL      6   ROW     8   COL     5   RATE     14.4346    
 
1
  VOLUMETRIC BUDGET FOR AGRICULTURAL FIELDS AT TIME STEP    5, STRESS PERIOD   8
  ------------------------------------------------------------------------------

     CUMULATIVE VOLUMES      L**3       RATES FOR THIS TIME STEP      L**3/T
     ------------------                 ------------------------

           IN:                                      IN:
           ---                                      ---
               AG WELLS  =   123460384.0000                 AG WELLS  =          87.0579
      DIVERSION SEGMENTS =           0.0000        DIVERSION SEGMENTS =           0.0000
           GW IRRIGATION =           0.0000             GW IRRIGATION =           0.0000
           SW IRRIGATION =           0.0000             SW IRRIGATION =           0.0000
        SYSTEM LOSSES GW =           0.0000          SYSTEM LOSSES GW =           0.0000
        SYSTEM LOSSES SW =           0.0000          SYSTEM LOSSES SW =           0.0000

                TOTAL IN =   123460384.0000                  TOTAL IN =          87.0579

          OUT:                                     OUT:
          ----                                     ----
               AG WELLS  =           0.0000                 AG WELLS  =           0.0000
      DIVERSION SEGMENTS =           0.0000        DIVERSION SEGMENTS =           0.0000
           GW IRRIGATION =   123460384.0000             GW IRRIGATION =          87.0579
           SW IRRIGATION =           0.0000             SW IRRIGATION =           0.0000
        SYSTEM LOSSES GW =           0.0000          SYSTEM LOSSES GW =           0.0000
        SYSTEM LOSSES SW =           0.0000          SYSTEM LOSSES SW =           0.0000

               TOTAL OUT =   123460384.0000                 TOTAL OUT =          87.0579

                IN - OUT =           0.0000                  IN - OUT =           0.0000

     PERCENT DISCREPANCY =           0.00         PERCENT DISCREPANCY =           0.00



1
  VOLUMETRIC BUDGET FOR ENTIRE MODEL AT END OF TIME STEP    5, STRESS PERIOD   8
  ------------------------------------------------------------------------------

     CUMULATIVE VOLUMES      L**3       RATES FOR THIS TIME STEP      L**3/T
     ------------------                 ------------------------

           IN:                                      IN:
           ---                                      ---
             STORAGE     =   129879768.0000               STORAGE     =          86.8251
       CONSTANT HEAD     =           0.0000         CONSTANT HEAD     =           0.0000
     HEAD DEP BOUNDS     =     4654242.0000       HEAD DEP BOUNDS     =           0.2855
      STREAM LEAKAGE     =   208010800.0000        STREAM LEAKAGE     =          13.2628
        UZF RECHARGE     =      388459.5938          UZF RECHARGE     =           0.0000
               GW ET     =           0.0000                 GW ET     =           0.0000
     SURFACE LEAKAGE     =           0.0000       SURFACE LEAKAGE     =           0.0000
           AG WELLS      =           0.0000             AG WELLS      =           0.0000

                TOTAL IN =   342933280.0000                  TOTAL IN =         100.3734

          OUT:                                     OUT:
          ----                                     ----
             STORAGE     =    42855252.0000               STORAGE     =           1.4652
       CONSTANT HEAD     =           0.0000         CONSTANT HEAD     =           0.0000
     HEAD DEP BOUNDS     =     4805486.0000       HEAD DEP BOUNDS     =           0.2994
      STREAM LEAKAGE     =   165053040.0000        STREAM LEAKAGE     =           9.7084
        UZF RECHARGE     =           0.0000          UZF RECHARGE     =           0.0000
               GW ET     =     6762616.5000                 GW ET     =           1.8401
     SURFACE LEAKAGE     =           0.0000       SURFACE LEAKAGE     =           0.0000
           AG WELLS      =   123460384.0000             AG WELLS      =          87.0579

               TOTAL OUT =   342936768.0000                 TOTAL OUT =         100.3710

                IN - OUT =       -3488.0000                  IN - OUT =       2.4033E-03

     PERCENT DISCREPANCY =          -0.00         PERCENT DISCREPANCY =           0.00






         TIME SUMMARY AT END OF TIME STEP    5 IN STRESS PERIOD    8
                    SECONDS     MINUTES      HOURS       DAYS        YEARS
                    -----------------------------------------------------------
   TIME STEP LENGTH  87667.      1461.1      24.352      1.0147     2.77799E-03
 STRESS PERIOD TIME 4.38333E+05  7305.6      121.76      5.0733     1.38899E-02
         TOTAL TIME 1.63048E+07 2.71746E+05  4529.1      188.71     0.51667    
1
 
 SOLVING FOR HEAD 
                                                   Max.-Head-Change                         Max.-Flux-Residual
  Residual-Control   Outer-Iter.   Inner-Iter.     Column Row Layer    Maximum-Head-Change  Column Row Layer    Maximum-Flux-Residual          L2-NORM 
          0                 1           2             4    7     1      -0.1590024670E+00       4    7    1        -0.8336073964E+01      0.1830890409E+02
          0                 2           2             6    7     1       0.2849678451E-02       6    7    1         0.1575813876E+00      0.4738517455E+00
          0                 3           2             5    7     1      -0.1212869715E-01       4    7    1        -0.6474317970E+00      0.1561695906E+01
          0                 4           2             4    7     1      -0.9016477038E-02       4    7    1        -0.4991851905E+00      0.1143381780E+01
          0                 5           2             4    7     1      -0.7410956330E-02       4    7    1        -0.4100594589E+00      0.9494493537E+00
          0                 6           2             4    7     1      -0.6113442938E-02       4    7    1        -0.3382824440E+00      0.7824055374E+00
          0                 7           2             4    7     1      -0.5069554200E-02       4    7    1        -0.2805106066E+00      0.6490766193E+00
          0                 8           2             4    7     1      -0.4220636158E-02       4    7    1        -0.2335335104E+00      0.5404770377E+00
          0                 9           2             4    7     1      -0.3524993838E-02       4    7    1        -0.1950391328E+00      0.4514650133E+00
          0                10           2             4    7     1      -0.2951508486E-02       4    7    1        -0.1633052983E+00      0.3780612522E+00
                                                   Max.-Head-Change                         Max.-Flux-Residual
  Residual-Control   Outer-Iter.   Inner-Iter.     Column Row Layer    Maximum-Head-Change  Column Row Layer    Maximum-Flux-Residual          L2-NORM 
          0                11           2             4    7     1      -0.2476441613E-02       4    7    1        -0.1370180207E+00      0.3172406756E+00
          0                12           2             4    7     1      -0.2081336420E-02       4    7    1        -0.1151557326E+00      0.2666482537E+00
          0                13           2             4    7     1      -0.1751718373E-02       4    7    1        -0.9691740278E-01      0.2244337944E+00
          0                14           2             4    7     1      -0.1475995155E-02       4    7    1        -0.8166139002E-01      0.1891178593E+00
          0                15           2             4    7     1      -0.1244874488E-02       4    7    1        -0.6887347042E-01      0.1595118601E+00
          0                16           2             4    7     1      -0.1050768144E-02       4    7    1        -0.5813371337E-01      0.1346450037E+00
          0                17           2             4    7     1      -0.8875046979E-03       4    7    1        -0.4910059317E-01      0.1137279531E+00
          0                18           2             4    7     1      -0.7500301527E-03       4    7    1        -0.4149443023E-01      0.9611402095E-01
          0                19           2             4    7     1      -0.6341608996E-03       4    7    1        -0.3508371930E-01      0.8126759949E-01
          0                20           2             4    7     1      -0.5364036880E-03       4    7    1        -0.2967516307E-01      0.6874128091E-01
                                                   Max.-Head-Change                         Max.-Flux-Residual
  Residual-Control   Outer-Iter.   Inner-Iter.     Column Row Layer    Maximum-Head-Change  Column Row Layer    Maximum-Flux-Residual          L2-NORM 
          0                21           2             4    7     1      -0.4538592935E-03       4    7    1        -0.2510833242E-01      0.5816388023E-01
          0                22           2             4    7     1      -0.3841059579E-03       4    7    1        -0.2124919499E-01      0.4922668890E-01
          0                23           2             4    7     1      -0.3251670644E-03       4    7    1        -0.1798845728E-01      0.4167231970E-01
          0                24           2             4    7     1      -0.2753273685E-03       4    7    1        -0.1523112867E-01      0.3528547855E-01
          0                25           2             4    7     1      -0.2331700478E-03       4    7    1        -0.1289884695E-01      0.2988290918E-01
          0                26           2             4    7     1      -0.1974912766E-03       4    7    1        -0.1092500239E-01      0.2531046935E-01
          0                27           2             4    7     1      -0.1672859369E-03       4    7    1        -0.9253980656E-02      0.2143942855E-01
          0                28           2             4    7     1      -0.1417136296E-03       4    7    1        -0.7839282069E-02      0.1816214747E-01
          0                29           2             4    7     1      -0.1200654961E-03       4    7    1        -0.6641686419E-02      0.1538779177E-01
          0                30           1             4    7     1      -0.1017310002E-03       4    7    1        -0.5627415922E-02      0.1303804329E-01
          0                31           1             4    7     1      -0.8619929629E-04       4    7    1        -0.4768206004E-02      0.1104748243E-01

    ------------------------------------------------
       NWT REQUIRED           31 OUTER ITERATIONS 
       AND A TOTAL OF         60 INNER ITERATIONS.
    ------------------------------------------------

 NO OUTPUT CONTROL FOR STRESS PERIOD    8   TIME STEP    6
 
 SOLVING FOR HEAD 
                                                   Max.-Head-Change                         Max.-Flux-Residual
  Residual-Control   Outer-Iter.   Inner-Iter.     Column Row Layer    Maximum-Head-Change  Column Row Layer    Maximum-Flux-Residual          L2-NORM 
          0                 1           2             4    7     1      -0.1570955712E+00       4    7    1        -0.8239611372E+01      0.1793952233E+02
          0                 2           2             5    8     1      -0.3255660050E-02       5    8    1        -0.1822708611E+00      0.5246180896E+00
          0                 3           2             5    7     1      -0.1209637809E-01       4    7    1        -0.6467806955E+00      0.1557210888E+01
          0                 4           2             4    7     1      -0.9017026376E-02       4    7    1        -0.4992062870E+00      0.1143811731E+01
          0                 5           2             4    7     1      -0.7410961900E-02       4    7    1        -0.4100585260E+00      0.9494070958E+00
          0                 6           2             4    7     1      -0.6113465842E-02       4    7    1        -0.3382819788E+00      0.7824097324E+00
          0                 7           2             4    7     1      -0.5069572440E-02       4    7    1        -0.2805102551E+00      0.6490762039E+00
          0                 8           2             4    7     1      -0.4220651375E-02       4    7    1        -0.2335332130E+00      0.5404770816E+00
          0                 9           2             4    7     1      -0.3525006545E-02       4    7    1        -0.1950388858E+00      0.4514650109E+00
          0                10           2             4    7     1      -0.2951519126E-02       4    7    1        -0.1633050919E+00      0.3780612541E+00
                                                   Max.-Head-Change                         Max.-Flux-Residual
  Residual-Control   Outer-Iter.   Inner-Iter.     Column Row Layer    Maximum-Head-Change  Column Row Layer    Maximum-Flux-Residual          L2-NORM 
          0                11           2             4    7     1      -0.2476450540E-02       4    7    1        -0.1370178479E+00      0.3172406769E+00
          0                12           2             4    7     1      -0.2081343923E-02       4    7    1        -0.1151555876E+00      0.2666482548E+00
          0                13           2             4    7     1      -0.1751724688E-02       4    7    1        -0.9691728091E-01      0.2244337953E+00
          0                14           2             4    7     1      -0.1476000475E-02       4    7    1        -0.8166128744E-01      0.1891178600E+00
          0                15           2             4    7     1      -0.1244878976E-02       4    7    1        -0.6887338403E-01      0.1595118607E+00
          0                16           2             4    7     1      -0.1050771931E-02       4    7    1        -0.5813364048E-01      0.1346450043E+00
          0                17           2             4    7     1      -0.8875078973E-03       4    7    1        -0.4910053167E-01      0.1137279535E+00
          0                18           2             4    7     1      -0.7500328569E-03       4    7    1        -0.4149437829E-01      0.9611402136E-01
          0                19           2             4    7     1      -0.6341631854E-03       4    7    1        -0.3508367539E-01      0.8126759981E-01
          0                20           2             4    7     1      -0.5364056215E-03       4    7    1        -0.2967512596E-01      0.6874128118E-01
                                                   Max.-Head-Change                         Max.-Flux-Residual
  Residual-Control   Outer-Iter.   Inner-Iter.     Column Row Layer    Maximum-Head-Change  Column Row Layer    Maximum-Flux-Residual          L2-NORM 
          0                21           2             4    7     1      -0.4538609299E-03       4    7    1        -0.2510830104E-01      0.5816388046E-01
          0                22           2             4    7     1      -0.3841073426E-03       4    7    1        -0.2124916843E-01      0.4922668910E-01
          0                23           2             4    7     1      -0.3251682362E-03       4    7    1        -0.1798843480E-01      0.4167231985E-01
          0                24           2             4    7     1      -0.2753283612E-03       4    7    1        -0.1523110966E-01      0.3528547868E-01
          0                25           2             4    7     1      -0.2331708888E-03       4    7    1        -0.1289883086E-01      0.2988290931E-01
          0                26           2             4    7     1      -0.1974919884E-03       4    7    1        -0.1092498875E-01      0.2531046945E-01
          0                27           2             4    7     1      -0.1672865399E-03       4    7    1        -0.9253969108E-02      0.2143942863E-01
          0                28           2             4    7     1      -0.1417141406E-03       4    7    1        -0.7839272296E-02      0.1816214753E-01
          0                29           2             4    7     1      -0.1200659289E-03       4    7    1        -0.6641678139E-02      0.1538779183E-01
          0                30           1             4    7     1      -0.1017313669E-03       4    7    1        -0.5627408908E-02      0.1303804334E-01
          0                31           1             4    7     1      -0.8619960701E-04       4    7    1        -0.4768200060E-02      0.1104748245E-01

    ------------------------------------------------
       NWT REQUIRED           31 OUTER ITERATIONS 
       AND A TOTAL OF         60 INNER ITERATIONS.
    ------------------------------------------------

 NO OUTPUT CONTROL FOR STRESS PERIOD    8   TIME STEP    7
 
 SOLVING FOR HEAD 
                                                   Max.-Head-Change                         Max.-Flux-Residual
  Residual-Control   Outer-Iter.   Inner-Iter.     Column Row Layer    Maximum-Head-Change  Column Row Layer    Maximum-Flux-Residual          L2-NORM 
          0                 1           2             4    7     1      -0.1551444439E+00       4    7    1        -0.8140537139E+01      0.1759084053E+02
          0                 2           2             5    8     1      -0.3704981846E-02       5    8    1        -0.2068936985E+00      0.5744136070E+00
          0                 3           2             5    7     1      -0.1206465634E-01       4    7    1        -0.6461106944E+00      0.1552880831E+01
          0                 4           2             4    7     1      -0.9017588838E-02       4    7    1        -0.4992282946E+00      0.1144226373E+01
          0                 5           2             4    7     1      -0.7410967926E-02       4    7    1        -0.4100575531E+00      0.9493663914E+00
          0                 6           2             4    7     1      -0.6113489547E-02       4    7    1        -0.3382815245E+00      0.7824137734E+00
          0                 7           2             4    7     1      -0.5069591326E-02       4    7    1        -0.2805099097E+00      0.6490758054E+00
          0                 8           2             4    7     1      -0.4220667131E-02       4    7    1        -0.2335329208E+00      0.5404771249E+00
          0                 9           2             4    7     1      -0.3525019703E-02       4    7    1        -0.1950386432E+00      0.4514650095E+00
          0                10           2             4    7     1      -0.2951530143E-02       4    7    1        -0.1633048892E+00      0.3780612567E+00
                                                   Max.-Head-Change                         Max.-Flux-Residual
  Residual-Control   Outer-Iter.   Inner-Iter.     Column Row Layer    Maximum-Head-Change  Column Row Layer    Maximum-Flux-Residual          L2-NORM 
          0                11           2             4    7     1      -0.2476459783E-02       4    7    1        -0.1370176781E+00      0.3172406787E+00
          0                12           2             4    7     1      -0.2081351692E-02       4    7    1        -0.1151554452E+00      0.2666482563E+00
          0                13           2             4    7     1      -0.1751731227E-02       4    7    1        -0.9691716120E-01      0.2244337966E+00
          0                14           2             4    7     1      -0.1476005985E-02       4    7    1        -0.8166118668E-01      0.1891178611E+00
          0                15           2             4    7     1      -0.1244883623E-02       4    7    1        -0.6887329914E-01      0.1595118617E+00
          0                16           2             4    7     1      -0.1050775853E-02       4    7    1        -0.5813356888E-01      0.1346450051E+00
          0                17           2             4    7     1      -0.8875112101E-03       4    7    1        -0.4910047124E-01      0.1137279542E+00
          0                18           2             4    7     1      -0.7500356565E-03       4    7    1        -0.4149432726E-01      0.9611402193E-01
          0                19           2             4    7     1      -0.6341655526E-03       4    7    1        -0.3508363227E-01      0.8126760029E-01
          0                20           2             4    7     1      -0.5364076240E-03       4    7    1        -0.2967508950E-01      0.6874128159E-01
                                                   Max.-Head-Change                         Max.-Flux-Residual
  Residual-Control   Outer-Iter.   Inner-Iter.     Column Row Layer    Maximum-Head-Change  Column Row Layer    Maximum-Flux-Residual          L2-NORM 
          0                21           2             4    7     1      -0.4538626237E-03       4    7    1        -0.2510827019E-01      0.5816388081E-01
          0                22           2             4    7     1      -0.3841087762E-03       4    7    1        -0.2124914235E-01      0.4922668941E-01
          0                23           2             4    7     1      -0.3251694502E-03       4    7    1        -0.1798841272E-01      0.4167232010E-01
          0                24           2             4    7     1      -0.2753293884E-03       4    7    1        -0.1523109096E-01      0.3528547889E-01
          0                25           2             4    7     1      -0.2331717592E-03       4    7    1        -0.1289881505E-01      0.2988290949E-01
          0                26           2             4    7     1      -0.1974927256E-03       4    7    1        -0.1092497536E-01      0.2531046960E-01
          0                27           2             4    7     1      -0.1672871645E-03       4    7    1        -0.9253957774E-02      0.2143942876E-01
          0                28           2             4    7     1      -0.1417146695E-03       4    7    1        -0.7839262678E-02      0.1816214765E-01
          0                29           2             4    7     1      -0.1200663765E-03       4    7    1        -0.6641669994E-02      0.1538779193E-01
          0                30           1             4    7     1      -0.1017317475E-03       4    7    1        -0.5627402036E-02      0.1303804342E-01
          0                31           1             4    7     1      -0.8619992814E-04       4    7    1        -0.4768194195E-02      0.1104748252E-01

    ------------------------------------------------
       NWT REQUIRED           31 OUTER ITERATIONS 
       AND A TOTAL OF         60 INNER ITERATIONS.
    ------------------------------------------------

 NO OUTPUT CONTROL FOR STRESS PERIOD    8   TIME STEP    8
 
 SOLVING FOR HEAD 
                                                   Max.-Head-Change                         Max.-Flux-Residual
  Residual-Control   Outer-Iter.   Inner-Iter.     Column Row Layer    Maximum-Head-Change  Column Row Layer    Maximum-Flux-Residual          L2-NORM 
          0                 1           2             4    7     1      -0.1531547049E+00       4    7    1        -0.8039162953E+01      0.1726117606E+02
          0                 2           2             5    8     1      -0.4131457678E-02       5    8    1        -0.2302426341E+00      0.6226595243E+00
          0                 3           2             4    7     1      -0.1235022383E-01       4    7    1        -0.6452570866E+00      0.1548629221E+01
          0                 4           2             4    7     1      -0.8800330282E-02       5    8    1        -0.4616610392E+00      0.1128535858E+01
          0                 5           2             4    7     1      -0.7341445926E-02       4    7    1        -0.3833022422E+00      0.9385607396E+00
          0                 6           2             4    7     1      -0.6046764144E-02       5    6    1        -0.3157156853E+00      0.7733281741E+00
          0                 7           2             4    7     1      -0.5016995585E-02       4    7    1        -0.2619376470E+00      0.6416008468E+00
          0                 8           2             4    7     1      -0.4177736304E-02       4    7    1        -0.2181198103E+00      0.5342746819E+00
          0                 9           2             4    7     1      -0.3489830037E-02       4    7    1        -0.1822041882E+00      0.4463006955E+00
          0                10           2             4    7     1      -0.2922505213E-02       4    7    1        -0.1525841266E+00      0.3737477745E+00
                                                   Max.-Head-Change                         Max.-Flux-Residual
  Residual-Control   Outer-Iter.   Inner-Iter.     Column Row Layer    Maximum-Head-Change  Column Row Layer    Maximum-Flux-Residual          L2-NORM 
          0                11           2             4    7     1      -0.2452408030E-02       4    7    1        -0.1280403279E+00      0.3136288789E+00
          0                12           2             4    7     1      -0.2061343355E-02       4    7    1        -0.1076227946E+00      0.2636178581E+00
          0                13           2             4    7     1      -0.1735036758E-02       4    7    1        -0.9058634150E-01      0.2218869989E+00
          0                14           2             4    7     1      -0.1462039676E-02       4    7    1        -0.7633314851E-01      0.1869745473E+00
          0                15           2             4    7     1      -0.1233176129E-02       4    7    1        -0.6438417303E-01      0.1577060748E+00
          0                16           2             4    7     1      -0.1040943063E-02       4    7    1        -0.5434767655E-01      0.1331221401E+00
          0                17           2             4    7     1      -0.8792410136E-03       4    7    1        -0.4590520595E-01      0.1124426969E+00
          0                18           2             4    7     1      -0.7430722487E-03       4    7    1        -0.3879582932E-01      0.9502860581E-01
          0                19           2             4    7     1      -0.6282969622E-03       4    7    1        -0.3280340715E-01      0.8035044308E-01
          0                20           2             4    7     1      -0.5314567298E-03       4    7    1        -0.2774737494E-01      0.6796592433E-01
                                                   Max.-Head-Change                         Max.-Flux-Residual
  Residual-Control   Outer-Iter.   Inner-Iter.     Column Row Layer    Maximum-Head-Change  Column Row Layer    Maximum-Flux-Residual          L2-NORM 
          0                21           2             4    7     1      -0.4496825684E-03       4    7    1        -0.2347794291E-01      0.5750814646E-01
          0                22           2             4    7     1      -0.3805768010E-03       5    7    1        -0.1987062085E-01      0.4867196877E-01
          0                23           2             4    7     1      -0.3221856602E-03       4    7    1        -0.1682132745E-01      0.4120291632E-01
          0                24           2             4    7     1      -0.2728064599E-03       4    7    1        -0.1424323455E-01      0.3488816723E-01
          0                25           2             4    7     1      -0.2310380517E-03       4    7    1        -0.1206250477E-01      0.2954655235E-01
          0                26           2             4    7     1      -0.1956871273E-03       4    7    1        -0.1021683172E-01      0.2502566244E-01
          0                27           2             4    7     1      -0.1657587882E-03       4    7    1        -0.8654272083E-02      0.2119824392E-01
          0                28           2             4    7     1      -0.1404209550E-03       4    7    1        -0.7331382916E-02      0.1795788745E-01
          0                29           2             4    7     1      -0.1189713941E-03       4    7    1        -0.6211500596E-02      0.1521478696E-01
          0                30           1             4    7     1      -0.1008044867E-03       4    7    1        -0.5263005672E-02      0.1289149200E-01
          0                31           1             4    7     1      -0.8541454239E-04       4    7    1        -0.4459496226E-02      0.1092333239E-01

    ------------------------------------------------
       NWT REQUIRED           31 OUTER ITERATIONS 
       AND A TOTAL OF         60 INNER ITERATIONS.
    ------------------------------------------------

 NO OUTPUT CONTROL FOR STRESS PERIOD    8   TIME STEP    9
 
 SOLVING FOR HEAD 
                                                   Max.-Head-Change                         Max.-Flux-Residual
  Residual-Control   Outer-Iter.   Inner-Iter.     Column Row Layer    Maximum-Head-Change  Column Row Layer    Maximum-Flux-Residual          L2-NORM 
          0                 1           2             4    7     1      -0.1511313677E+00       4    7    1        -0.7935767221E+01      0.1694919040E+02
          0                 2           2             5    8     1      -0.4536585327E-02       5    8    1        -0.2524033715E+00      0.6698896991E+00
          0                 3           2             4    7     1      -0.1233003283E-01       4    7    1        -0.6442242199E+00      0.1544452690E+01
          0                 4           2             4    7     1      -0.8802389076E-02       5    8    1        -0.4618806944E+00      0.1128957662E+01
          0                 5           2             4    7     1      -0.7341272556E-02       4    7    1        -0.3832919351E+00      0.9385186514E+00
          0                 6           2             4    7     1      -0.6046808294E-02       5    6    1        -0.3157178260E+00      0.7733323773E+00
          0                 7           2             4    7     1      -0.5017013399E-02       4    7    1        -0.2619375437E+00      0.6416004241E+00
          0                 8           2             4    7     1      -0.4177753026E-02       4    7    1        -0.2181198205E+00      0.5342747220E+00
          0                 9           2             4    7     1      -0.3489843817E-02       4    7    1        -0.1822041870E+00      0.4463006897E+00
          0                10           2             4    7     1      -0.2922516772E-02       4    7    1        -0.1525841266E+00      0.3737477736E+00
                                                   Max.-Head-Change                         Max.-Flux-Residual
  Residual-Control   Outer-Iter.   Inner-Iter.     Column Row Layer    Maximum-Head-Change  Column Row Layer    Maximum-Flux-Residual          L2-NORM 
          0                11           2             4    7     1      -0.2452417727E-02       4    7    1        -0.1280403278E+00      0.3136288777E+00
          0                12           2             4    7     1      -0.2061351506E-02       4    7    1        -0.1076227945E+00      0.2636178571E+00
          0                13           2             4    7     1      -0.1735043619E-02       4    7    1        -0.9058634144E-01      0.2218869981E+00
          0                14           2             4    7     1      -0.1462045458E-02       4    7    1        -0.7633314846E-01      0.1869745466E+00
          0                15           2             4    7     1      -0.1233181005E-02       4    7    1        -0.6438417298E-01      0.1577060742E+00
          0                16           2             4    7     1      -0.1040947179E-02       4    7    1        -0.5434767650E-01      0.1331221396E+00
          0                17           2             4    7     1      -0.8792444909E-03       4    7    1        -0.4590520593E-01      0.1124426965E+00
          0                18           2             4    7     1      -0.7430751869E-03       4    7    1        -0.3879582928E-01      0.9502860547E-01
          0                19           2             4    7     1      -0.6282994467E-03       4    7    1        -0.3280340712E-01      0.8035044278E-01
          0                20           2             4    7     1      -0.5314588314E-03       4    7    1        -0.2774737491E-01      0.6796592410E-01
                                                   Max.-Head-Change                         Max.-Flux-Residual
  Residual-Control   Outer-Iter.   Inner-Iter.     Column Row Layer    Maximum-Head-Change  Column Row Layer    Maximum-Flux-Residual          L2-NORM 
          0                21           2             4    7     1      -0.4496843467E-03       4    7    1        -0.2347794289E-01      0.5750814626E-01
          0                22           2             4    7     1      -0.3805783055E-03       5    7    1        -0.1987062077E-01      0.4867196859E-01
          0                23           2             4    7     1      -0.3221869340E-03       4    7    1        -0.1682132743E-01      0.4120291619E-01
          0                24           2             4    7     1      -0.2728075389E-03       4    7    1        -0.1424323455E-01      0.3488816710E-01
          0                25           2             4    7     1      -0.2310389655E-03       4    7    1        -0.1206250476E-01      0.2954655224E-01
          0                26           2             4    7     1      -0.1956879010E-03       4    7    1        -0.1021683170E-01      0.2502566236E-01
          0                27           2             4    7     1      -0.1657594439E-03       4    7    1        -0.8654272075E-02      0.2119824384E-01
          0                28           2             4    7     1      -0.1404215099E-03       4    7    1        -0.7331382895E-02      0.1795788739E-01
          0                29           2             4    7     1      -0.1189718648E-03       4    7    1        -0.6211500599E-02      0.1521478691E-01
          0                30           1             4    7     1      -0.1008048851E-03       4    7    1        -0.5263005653E-02      0.1289149194E-01
          0                31           1             4    7     1      -0.8541488017E-04       4    7    1        -0.4459496223E-02      0.1092333235E-01

    ------------------------------------------------
       NWT REQUIRED           31 OUTER ITERATIONS 
       AND A TOTAL OF         60 INNER ITERATIONS.
    ------------------------------------------------

 OUTPUT CONTROL FOR STRESS PERIOD    8   TIME STEP   10
    PRINT BUDGET
    SAVE BUDGET
 UBDSV1 SAVING "         STORAGE" ON UNIT 102 AT TIME STEP 10, STRESS PERIOD   8
 UBDSV2 SAVING "   CONSTANT HEAD" ON UNIT 102 AT TIME STEP 10, STRESS PERIOD   8
 UBDSV1 SAVING "FLOW RIGHT FACE " ON UNIT 102 AT TIME STEP 10, STRESS PERIOD   8
 UBDSV1 SAVING "FLOW FRONT FACE " ON UNIT 102 AT TIME STEP 10, STRESS PERIOD   8

  HEAD DEP BOUNDS   PERIOD    8   STEP    10
 BOUNDARY      1   LAYER   1   ROW    13   COL     1   RATE   -0.299187    
 BOUNDARY      2   LAYER   1   ROW    14   COL     9   RATE    0.285481    



 STREAM LISTING     PERIOD      8   STEP       10

 LAYER ROW COL. STREAM  RCH.  FLOW INTO     FLOW TO   FLOW OUT OF   OVRLND.     DIRECT     STREAM       STREAM     STREAM     STREAM   STREAMBED  STREAMBED
                SEG.NO.  NO.  STRM. RCH.    AQUIFER    STRM. RCH.    RUNOFF     PRECIP       ET          HEAD       DEPTH      WIDTH   CONDCTNC.   GRADIENT

   1    1    1     1     1    7.5000E+01  4.2232E-01   7.4578E+01  0.000E+00  0.000E+00  0.000E+00  1.09475E+03  1.698E+00  1.998E+01  8.990E-02  1.566E+00
   1    2    2     1     2    7.4578E+01  6.5422E-01   7.3924E+01  0.000E+00  0.000E+00  0.000E+00  1.08975E+03  1.692E+00  1.992E+01  1.394E-01  1.564E+00
   1    3    3     1     3    7.3924E+01  5.5813E-01   7.3366E+01  0.000E+00  0.000E+00  0.000E+00  1.08410E+03  1.685E+00  1.985E+01  1.191E-01  1.562E+00
   1    3    4     1     4    7.3366E+01  5.1412E-01   7.2852E+01  0.000E+00  0.000E+00  0.000E+00  1.07909E+03  1.679E+00  1.980E+01  1.099E-01  1.560E+00
   1    4    5     2     1    7.0852E+01  4.0967E-01   7.0442E+01  0.000E+00  0.000E+00  0.000E+00  1.07419E+03  2.252E+00  1.200E+01  7.800E-02  1.751E+00
   1    5    6     2     2    7.0442E+01  3.1471E-01   7.0127E+01  0.000E+00  0.000E+00  0.000E+00  1.06875E+03  2.245E+00  1.200E+01  6.000E-02  1.748E+00
   1    6    6     2     3    7.0127E+01  3.1435E-01   6.9813E+01  0.000E+00  0.000E+00  0.000E+00  1.06403E+03  2.239E+00  1.200E+01  6.000E-02  1.746E+00
   1    7    6     2     4    6.9813E+01  3.1399E-01   6.9499E+01  0.000E+00  0.000E+00  0.000E+00  1.05931E+03  2.233E+00  1.200E+01  6.000E-02  1.744E+00
   1    8    6     2     5    6.9499E+01  3.1363E-01   6.9185E+01  0.000E+00  0.000E+00  0.000E+00  1.05459E+03  2.227E+00  1.200E+01  6.000E-02  1.742E+00
   1    3    5     3     1    2.0000E+00  2.8252E-01   1.7175E+00  0.000E+00  0.000E+00  0.000E+00  1.07555E+03  1.909E+00  9.636E+00  7.227E-02  1.955E+00
   1    3    6     3     2    1.7175E+00  2.4905E-01   1.4684E+00  0.000E+00  0.000E+00  0.000E+00  1.07264E+03  1.727E+00  8.909E+00  6.682E-02  1.864E+00
   1    3    7     3     3    1.4684E+00  1.9718E-01   1.2712E+00  0.000E+00  0.000E+00  0.000E+00  1.06987E+03  1.555E+00  8.218E+00  5.547E-02  1.777E+00
   1    4    8     3     4    1.2712E+00  2.2567E-01   1.0456E+00  0.000E+00  0.000E+00  0.000E+00  1.06682E+03  1.364E+00  7.455E+00  6.709E-02  1.682E+00
   1    5    8     3     5    1.0456E+00  1.5790E-01   8.8768E-01  0.000E+00  0.000E+00  0.000E+00  1.06362E+03  1.164E+00  6.655E+00  4.991E-02  1.582E+00
   1    6    8     3     6    8.8768E-01  5.5980E-02   8.3170E-01  0.000E+00  0.000E+00  0.000E+00  1.06158E+03  1.036E+00  6.145E+00  1.844E-02  1.518E+00
   1    5   10     4     1    1.0000E+01  9.0919E-02   9.9091E+00  0.000E+00  0.000E+00  0.000E+00  1.07836E+03  6.368E-01  1.000E+01  2.500E-02  1.212E+00
   1    5    9     4     2    9.9091E+00  1.8158E-01   9.7275E+00  0.000E+00  0.000E+00  0.000E+00  1.07154E+03  6.315E-01  1.000E+01  5.000E-02  1.211E+00
   1    6    8     4     3    9.7275E+00  1.2689E-01   9.6006E+00  0.000E+00  0.000E+00  0.000E+00  1.06381E+03  6.256E-01  1.000E+01  3.500E-02  1.209E+00
   1    6    8     5     1    1.0432E+01  2.2686E-01   1.0205E+01  0.000E+00  0.000E+00  0.000E+00  1.05868E+03  6.790E-01  1.542E+01  6.166E-02  1.226E+00
   1    7    7     5     2    1.0205E+01  2.7894E-01   9.9265E+00  0.000E+00  0.000E+00  0.000E+00  1.05417E+03  6.732E-01  1.519E+01  7.594E-02  1.224E+00
   1    8    7     5     3    9.9265E+00  1.9221E-01   9.7343E+00  0.000E+00  0.000E+00  0.000E+00  1.04992E+03  6.676E-01  1.497E+01  5.241E-02  1.223E+00
   1    8    6     5     4    9.7343E+00  1.3577E-01   9.5985E+00  0.000E+00  0.000E+00  0.000E+00  1.04691E+03  6.637E-01  1.482E+01  3.706E-02  1.221E+00
   1    9    6     6     1    7.8784E+01  3.2569E-01   7.8458E+01  0.000E+00  0.000E+00  0.000E+00  1.04516E+03  2.428E+00  1.200E+01  6.000E-02  1.809E+00
   1   10    7     6     2    7.8458E+01  3.2533E-01   7.8133E+01  0.000E+00  0.000E+00  0.000E+00  1.04060E+03  2.422E+00  1.200E+01  6.000E-02  1.807E+00
   1   11    7     6     3    7.8133E+01  3.2497E-01   7.7808E+01  0.000E+00  0.000E+00  0.000E+00  1.03605E+03  2.416E+00  1.200E+01  6.000E-02  1.805E+00
   1   12    7     6     4    7.7808E+01  3.2461E-01   7.7483E+01  0.000E+00  0.000E+00  0.000E+00  1.03150E+03  2.410E+00  1.200E+01  6.000E-02  1.803E+00
   1   13    7     6     5    7.7483E+01  2.5893E-02   7.7457E+01  0.000E+00  0.000E+00  0.000E+00  1.02832E+03  2.407E+00  1.200E+01  2.400E-02  3.596E-01
   1   14    9     7     1    1.5000E+02  1.3317E+00   1.4867E+02  0.000E+00  0.000E+00  0.000E+00  1.03987E+03  2.288E+00  5.529E+01  5.593E-01  7.937E-01
   1   13    8     7     2    1.4867E+02  1.8009E+00   1.4687E+02  0.000E+00  0.000E+00  0.000E+00  1.03478E+03  2.279E+00  5.526E+01  6.148E-01  9.765E-01
   1   13    7     7     3    1.4687E+02  1.3701E+00   1.4550E+02  0.000E+00  0.000E+00  0.000E+00  1.02969E+03  2.271E+00  5.522E+01  5.585E-01  8.177E-01
   1   13    6     8     1    2.2295E+02  1.0168E+00   2.2194E+02  0.000E+00  0.000E+00  0.000E+00  1.02514E+03  3.265E+00  4.735E+01  4.825E-01  7.024E-01
   1   13    5     8     2    2.2194E+02  1.9907E-01   2.2174E+02  0.000E+00  0.000E+00  0.000E+00  1.01889E+03  3.262E+00  4.730E+01  4.820E-01  1.377E-01
   1   13    4     8     3    2.2174E+02 -1.9223E+00   2.2366E+02  0.000E+00  0.000E+00  0.000E+00  1.01264E+03  3.267E+00  4.737E+01  4.827E+00 -1.327E-01
   1   13    3     8     4    2.2366E+02 -3.0756E+00   2.2674E+02  0.000E+00  0.000E+00  0.000E+00  1.00641E+03  3.281E+00  4.757E+01  4.847E+00 -2.115E-01
   1   13    2     8     5    2.2674E+02 -2.5698E+00   2.2931E+02  0.000E+00  0.000E+00  0.000E+00  1.00017E+03  3.296E+00  4.779E+01  4.870E+00 -1.759E-01
   1   13    1     8     6    2.2931E+02 -2.0239E+00   2.3133E+02  0.000E+00  0.000E+00  0.000E+00  9.95183E+02  3.308E+00  4.797E+01  2.933E+00 -2.300E-01



 UBDSV3 SAVING "           GW ET" ON UNIT  61 AT TIME STEP 10, STRESS PERIOD   8
 UBDSV3 SAVING "    UZF RECHARGE" ON UNIT  61 AT TIME STEP 10, STRESS PERIOD   8
 UBDSV3 SAVING " SURFACE LEAKAGE" ON UNIT  61 AT TIME STEP 10, STRESS PERIOD   8
 UBDSV3 SAVING "       HORT+DUNN" ON UNIT  61 AT TIME STEP 10, STRESS PERIOD   8
 UBDSV3 SAVING "  STORAGE CHANGE" ON UNIT  61 AT TIME STEP 10, STRESS PERIOD   8


UNSATURATED ZONE PACKAGE VOLUMETRIC BUDGET FOR  TIME STEP    10 STRESS PERIOD    8
  ------------------------------------------------------------------------------



     CUMULATIVE VOLUMES      L**3       RATES FOR THIS TIME STEP      L**3/T
     ------------------                 ------------------------

           IN:                                      IN:
           ---                                      ---
        INFILTRATION =   235108248.8137          INFILTRATION =          91.4654

          OUT:                                     OUT:
          ----                                     ----
              UZF ET =   193636801.0789                UZF ET =          64.0822
        UZF RECHARGE =      388459.6891          UZF RECHARGE =       0.0000E+00

            IN - OUT =    41082988.0458              IN - OUT =          27.3832

          STORAGE:                                 STORAGE:
          --------                                 --------
      STORAGE CHANGE =    41083558.7708        STORAGE CHANGE =          27.3832

 PERCENT DISCREPANCY IS DIFFERENCE BETWEEN IN-OUT MINUS CHANGE IN STORAGE
 DIVIDED BY THE AVERAGE OF IN AND OUT TIMES 100

 PERCENT DISCREPANCY =          -0.00     PERCENT DISCREPANCY =           0.00






 

            AG WELLS      PERIOD    8   STEP  10
 AG WELL      1   LAYER   1   ROW     6   COL     4   RATE    -14.5321    
 AG WELL      2   LAYER   1   ROW     6   COL     5   RATE    -14.5221    
 AG WELL      3   LAYER   1   ROW     7   COL     4   RATE    -14.5296    
 AG WELL      4   LAYER   1   ROW     7   COL     5   RATE    -14.5096    
 AG WELL      5   LAYER   1   ROW     8   COL     4   RATE    -14.5296    
 AG WELL      6   LAYER   1   ROW     8   COL     5   RATE    -14.4346    
 
 

        GW IRRIGATION     PERIOD    8   STEP  10
 AG WELL      1   ROW     6   COL     4   RATE     14.5321    
 AG WELL      2   ROW     6   COL     5   RATE     14.5221    
 AG WELL      3   ROW     7   COL     4   RATE     14.5296    
 AG WELL      4   ROW     7   COL     5   RATE     14.5096    
 AG WELL      5   ROW     8   COL     4   RATE     14.5296    
 AG WELL      6   ROW     8   COL     5   RATE     14.4346    
 
1
  VOLUMETRIC BUDGET FOR AGRICULTURAL FIELDS AT TIME STEP   10, STRESS PERIOD   8
  ------------------------------------------------------------------------------

     CUMULATIVE VOLUMES      L**3       RATES FOR THIS TIME STEP      L**3/T
     ------------------                 ------------------------

           IN:                                      IN:
           ---                                      ---
               AG WELLS  =   161620768.0000                 AG WELLS  =          87.0579
      DIVERSION SEGMENTS =           0.0000        DIVERSION SEGMENTS =           0.0000
           GW IRRIGATION =           0.0000             GW IRRIGATION =           0.0000
           SW IRRIGATION =           0.0000             SW IRRIGATION =           0.0000
        SYSTEM LOSSES GW =           0.0000          SYSTEM LOSSES GW =           0.0000
        SYSTEM LOSSES SW =           0.0000          SYSTEM LOSSES SW =           0.0000

                TOTAL IN =   161620768.0000                  TOTAL IN =          87.0579

          OUT:                                     OUT:
          ----                                     ----
               AG WELLS  =           0.0000                 AG WELLS  =           0.0000
      DIVERSION SEGMENTS =           0.0000        DIVERSION SEGMENTS =           0.0000
           GW IRRIGATION =   161620768.0000             GW IRRIGATION =          87.0579
           SW IRRIGATION =           0.0000             SW IRRIGATION =           0.0000
        SYSTEM LOSSES GW =           0.0000          SYSTEM LOSSES GW =           0.0000
        SYSTEM LOSSES SW =           0.0000          SYSTEM LOSSES SW =           0.0000

               TOTAL OUT =   161620768.0000                 TOTAL OUT =          87.0579

                IN - OUT =           0.0000                  IN - OUT =           0.0000

     PERCENT DISCREPANCY =           0.00         PERCENT DISCREPANCY =           0.00



1
  VOLUMETRIC BUDGET FOR ENTIRE MODEL AT END OF TIME STEP   10, STRESS PERIOD   8
  ------------------------------------------------------------------------------

     CUMULATIVE VOLUMES      L**3       RATES FOR THIS TIME STEP      L**3/T
     ------------------                 ------------------------

           IN:                                      IN:
           ---                                      ---
             STORAGE     =   167804912.0000               STORAGE     =          86.3909
       CONSTANT HEAD     =           0.0000         CONSTANT HEAD     =           0.0000
     HEAD DEP BOUNDS     =     4779378.0000       HEAD DEP BOUNDS     =           0.2855
      STREAM LEAKAGE     =   213824032.0000        STREAM LEAKAGE     =          13.2617
        UZF RECHARGE     =      388459.5938          UZF RECHARGE     =           0.0000
               GW ET     =           0.0000                 GW ET     =           0.0000
     SURFACE LEAKAGE     =           0.0000       SURFACE LEAKAGE     =           0.0000
           AG WELLS      =           0.0000             AG WELLS      =           0.0000

                TOTAL IN =   386796768.0000                  TOTAL IN =          99.9380

          OUT:                                     OUT:
          ----                                     ----
             STORAGE     =    43479228.0000               STORAGE     =           1.3947
       CONSTANT HEAD     =           0.0000         CONSTANT HEAD     =           0.0000
     HEAD DEP BOUNDS     =     4936670.0000       HEAD DEP BOUNDS     =           0.2992
      STREAM LEAKAGE     =   169273600.0000        STREAM LEAKAGE     =           9.5916
        UZF RECHARGE     =           0.0000          UZF RECHARGE     =           0.0000
               GW ET     =     7488944.0000                 GW ET     =           1.5921
     SURFACE LEAKAGE     =           0.0000       SURFACE LEAKAGE     =           0.0000
           AG WELLS      =   161620768.0000             AG WELLS      =          87.0579

               TOTAL OUT =   386799232.0000                 TOTAL OUT =          99.9353

                IN - OUT =       -2464.0000                  IN - OUT =       2.6627E-03

     PERCENT DISCREPANCY =          -0.00         PERCENT DISCREPANCY =           0.00






         TIME SUMMARY AT END OF TIME STEP   10 IN STRESS PERIOD    8
                    SECONDS     MINUTES      HOURS       DAYS        YEARS
                    -----------------------------------------------------------
   TIME STEP LENGTH  87667.      1461.1      24.352      1.0147     2.77799E-03
 STRESS PERIOD TIME 8.76667E+05  14611.      243.52      10.147     2.77799E-02
         TOTAL TIME 1.67431E+07 2.79052E+05  4650.9      193.79     0.53056    
1
 
 SOLVING FOR HEAD 
                                                   Max.-Head-Change                         Max.-Flux-Residual
  Residual-Control   Outer-Iter.   Inner-Iter.     Column Row Layer    Maximum-Head-Change  Column Row Layer    Maximum-Flux-Residual          L2-NORM 
          0                 1           2             4    7     1      -0.1490797028E+00       4    7    1        -0.7830642982E+01      0.1665356904E+02
          0                 2           2             5    8     1      -0.4921818002E-02       5    8    1        -0.2734563499E+00      0.7153461225E+00
          0                 3           2             4    7     1      -0.1230955951E-01       4    7    1        -0.6431740538E+00      0.1540405790E+01
          0                 4           2             4    7     1      -0.8804477049E-02       5    8    1        -0.4620894075E+00      0.1129366509E+01
          0                 5           2             4    7     1      -0.7341097046E-02       4    7    1        -0.3832814546E+00      0.9384778534E+00
          0                 6           2             4    7     1      -0.6046853301E-02       5    6    1        -0.3157198668E+00      0.7733364518E+00
          0                 7           2             4    7     1      -0.5017031660E-02       4    7    1        -0.2619374387E+00      0.6416000144E+00
          0                 8           2             4    7     1      -0.4177770146E-02       4    7    1        -0.2181198307E+00      0.5342747610E+00
          0                 9           2             4    7     1      -0.3489857927E-02       4    7    1        -0.1822041858E+00      0.4463006842E+00
          0                10           2             4    7     1      -0.2922528607E-02       4    7    1        -0.1525841266E+00      0.3737477728E+00
                                                   Max.-Head-Change                         Max.-Flux-Residual
  Residual-Control   Outer-Iter.   Inner-Iter.     Column Row Layer    Maximum-Head-Change  Column Row Layer    Maximum-Flux-Residual          L2-NORM 
          0                11           2             4    7     1      -0.2452427656E-02       4    7    1        -0.1280403276E+00      0.3136288767E+00
          0                12           2             4    7     1      -0.2061359852E-02       4    7    1        -0.1076227944E+00      0.2636178563E+00
          0                13           2             4    7     1      -0.1735050644E-02       4    7    1        -0.9058634136E-01      0.2218869974E+00
          0                14           2             4    7     1      -0.1462051377E-02       4    7    1        -0.7633314840E-01      0.1869745461E+00
          0                15           2             4    7     1      -0.1233185998E-02       4    7    1        -0.6438417293E-01      0.1577060738E+00
          0                16           2             4    7     1      -0.1040951394E-02       4    7    1        -0.5434767646E-01      0.1331221392E+00
          0                17           2             4    7     1      -0.8792480505E-03       4    7    1        -0.4590520588E-01      0.1124426962E+00
          0                18           2             4    7     1      -0.7430781955E-03       4    7    1        -0.3879582926E-01      0.9502860517E-01
          0                19           2             4    7     1      -0.6283019908E-03       4    7    1        -0.3280340710E-01      0.8035044252E-01
          0                20           2             4    7     1      -0.5314609834E-03       4    7    1        -0.2774737489E-01      0.6796592389E-01
                                                   Max.-Head-Change                         Max.-Flux-Residual
  Residual-Control   Outer-Iter.   Inner-Iter.     Column Row Layer    Maximum-Head-Change  Column Row Layer    Maximum-Flux-Residual          L2-NORM 
          0                21           2             4    7     1      -0.4496861674E-03       4    7    1        -0.2347794287E-01      0.5750814608E-01
          0                22           2             4    7     1      -0.3805798464E-03       5    7    1        -0.1987062074E-01      0.4867196845E-01
          0                23           2             4    7     1      -0.3221882386E-03       4    7    1        -0.1682132741E-01      0.4120291605E-01
          0                24           2             4    7     1      -0.2728086433E-03       4    7    1        -0.1424323453E-01      0.3488816698E-01
          0                25           2             4    7     1      -0.2310399009E-03       4    7    1        -0.1206250475E-01      0.2954655215E-01
          0                26           2             4    7     1      -0.1956886931E-03       4    7    1        -0.1021683169E-01      0.2502566227E-01
          0                27           2             4    7     1      -0.1657601152E-03       4    7    1        -0.8654272081E-02      0.2119824379E-01
          0                28           2             4    7     1      -0.1404220787E-03       4    7    1        -0.7331382895E-02      0.1795788732E-01
          0                29           2             4    7     1      -0.1189723463E-03       4    7    1        -0.6211500592E-02      0.1521478687E-01
          0                30           1             4    7     1      -0.1008052935E-03       4    7    1        -0.5263005662E-02      0.1289149192E-01
          0                31           1             4    7     1      -0.8541522582E-04       4    7    1        -0.4459496212E-02      0.1092333232E-01

    ------------------------------------------------
       NWT REQUIRED           31 OUTER ITERATIONS 
       AND A TOTAL OF         60 INNER ITERATIONS.
    ------------------------------------------------

 NO OUTPUT CONTROL FOR STRESS PERIOD    8   TIME STEP   11
 
 SOLVING FOR HEAD 
                                                   Max.-Head-Change                         Max.-Flux-Residual
  Residual-Control   Outer-Iter.   Inner-Iter.     Column Row Layer    Maximum-Head-Change  Column Row Layer    Maximum-Flux-Residual          L2-NORM 
          0                 1           2             4    7     1      -0.1470042475E+00       4    7    1        -0.7724043442E+01      0.1637318101E+02
          0                 2           2             5    8     1      -0.5288439766E-02       5    8    1        -0.2934741973E+00      0.7592503970E+00
          0                 3           2             4    7     1      -0.1228884938E-01       4    7    1        -0.6421091188E+00      0.1536483035E+01
          0                 4           2             4    7     1      -0.8806589557E-02       5    8    1        -0.4622878931E+00      0.1129762936E+01
          0                 5           2             4    7     1      -0.7340919782E-02       4    7    1        -0.3832708258E+00      0.9384382928E+00
          0                 6           2             4    7     1      -0.6046899059E-02       5    6    1        -0.3157218140E+00      0.7733404030E+00
          0                 7           2             4    7     1      -0.5017050325E-02       4    7    1        -0.2619373323E+00      0.6415996172E+00
          0                 8           2             4    7     1      -0.4177787625E-02       4    7    1        -0.2181198412E+00      0.5342747989E+00
          0                 9           2             4    7     1      -0.3489872333E-02       4    7    1        -0.1822041846E+00      0.4463006789E+00
          0                10           2             4    7     1      -0.2922540690E-02       4    7    1        -0.1525841266E+00      0.3737477721E+00
                                                   Max.-Head-Change                         Max.-Flux-Residual
  Residual-Control   Outer-Iter.   Inner-Iter.     Column Row Layer    Maximum-Head-Change  Column Row Layer    Maximum-Flux-Residual          L2-NORM 
          0                11           2             4    7     1      -0.2452437794E-02       4    7    1        -0.1280403275E+00      0.3136288757E+00
          0                12           2             4    7     1      -0.2061368373E-02       4    7    1        -0.1076227943E+00      0.2636178555E+00
          0                13           2             4    7     1      -0.1735057817E-02       4    7    1        -0.9058634129E-01      0.2218869968E+00
          0                14           2             4    7     1      -0.1462057421E-02       4    7    1        -0.7633314833E-01      0.1869745455E+00
          0                15           2             4    7     1      -0.1233191096E-02       4    7    1        -0.6438417288E-01      0.1577060733E+00
          0                16           2             4    7     1      -0.1040955697E-02       4    7    1        -0.5434767641E-01      0.1331221388E+00
          0                17           2             4    7     1      -0.8792516854E-03       4    7    1        -0.4590520585E-01      0.1124426958E+00
          0                18           2             4    7     1      -0.7430812677E-03       4    7    1        -0.3879582924E-01      0.9502860489E-01
          0                19           2             4    7     1      -0.6283045876E-03       4    7    1        -0.3280340706E-01      0.8035044229E-01
          0                20           2             4    7     1      -0.5314631807E-03       4    7    1        -0.2774737488E-01      0.6796592368E-01
                                                   Max.-Head-Change                         Max.-Flux-Residual
  Residual-Control   Outer-Iter.   Inner-Iter.     Column Row Layer    Maximum-Head-Change  Column Row Layer    Maximum-Flux-Residual          L2-NORM 
          0                21           2             4    7     1      -0.4496880261E-03       4    7    1        -0.2347794285E-01      0.5750814590E-01
          0                22           2             4    7     1      -0.3805814194E-03       5    7    1        -0.1987062069E-01      0.4867196829E-01
          0                23           2             4    7     1      -0.3221895707E-03       4    7    1        -0.1682132742E-01      0.4120291594E-01
          0                24           2             4    7     1      -0.2728097711E-03       4    7    1        -0.1424323452E-01      0.3488816689E-01
          0                25           2             4    7     1      -0.2310408556E-03       4    7    1        -0.1206250474E-01      0.2954655207E-01
          0                26           2             4    7     1      -0.1956895031E-03       4    7    1        -0.1021683171E-01      0.2502566221E-01
          0                27           2             4    7     1      -0.1657607998E-03       4    7    1        -0.8654272044E-02      0.2119824370E-01
          0                28           2             4    7     1      -0.1404226589E-03       4    7    1        -0.7331382885E-02      0.1795788727E-01
          0                29           2             4    7     1      -0.1189728383E-03       4    7    1        -0.6211500597E-02      0.1521478682E-01
          0                30           1             4    7     1      -0.1008057102E-03       4    7    1        -0.5263005658E-02      0.1289149187E-01
          0                31           1             4    7     1      -0.8541557923E-04       4    7    1        -0.4459496213E-02      0.1092333229E-01

    ------------------------------------------------
       NWT REQUIRED           31 OUTER ITERATIONS 
       AND A TOTAL OF         60 INNER ITERATIONS.
    ------------------------------------------------

 NO OUTPUT CONTROL FOR STRESS PERIOD    8   TIME STEP   12
 
 SOLVING FOR HEAD 
                                                   Max.-Head-Change                         Max.-Flux-Residual
  Residual-Control   Outer-Iter.   Inner-Iter.     Column Row Layer    Maximum-Head-Change  Column Row Layer    Maximum-Flux-Residual          L2-NORM 
          0                 1           2             4    7     1      -0.1449093538E+00       4    7    1        -0.7616211027E+01      0.1610701241E+02
          0                 2           2             5    8     1      -0.5637669870E-02       5    8    1        -0.3125254386E+00      0.8016294013E+00
          0                 3           2             4    7     1      -0.1226794585E-01       4    7    1        -0.6410318385E+00      0.1532678734E+01
          0                 4           2             4    7     1      -0.8808722165E-02       5    8    1        -0.4624768275E+00      0.1130147483E+01
          0                 5           2             4    7     1      -0.7340741132E-02       4    7    1        -0.3832600732E+00      0.9383999157E+00
          0                 6           2             4    7     1      -0.6046945471E-02       5    6    1        -0.3157236733E+00      0.7733442362E+00
          0                 7           2             4    7     1      -0.5017069350E-02       4    7    1        -0.2619372246E+00      0.6415992320E+00
          0                 8           2             4    7     1      -0.4177805422E-02       4    7    1        -0.2181198518E+00      0.5342748358E+00
          0                 9           2             4    7     1      -0.3489887004E-02       4    7    1        -0.1822041834E+00      0.4463006739E+00
          0                10           2             4    7     1      -0.2922552996E-02       4    7    1        -0.1525841266E+00      0.3737477715E+00
                                                   Max.-Head-Change                         Max.-Flux-Residual
  Residual-Control   Outer-Iter.   Inner-Iter.     Column Row Layer    Maximum-Head-Change  Column Row Layer    Maximum-Flux-Residual          L2-NORM 
          0                11           2             4    7     1      -0.2452448118E-02       4    7    1        -0.1280403274E+00      0.3136288748E+00
          0                12           2             4    7     1      -0.2061377051E-02       4    7    1        -0.1076227942E+00      0.2636178548E+00
          0                13           2             4    7     1      -0.1735065121E-02       4    7    1        -0.9058634122E-01      0.2218869962E+00
          0                14           2             4    7     1      -0.1462063577E-02       4    7    1        -0.7633314828E-01      0.1869745450E+00
          0                15           2             4    7     1      -0.1233196288E-02       4    7    1        -0.6438417282E-01      0.1577060729E+00
          0                16           2             4    7     1      -0.1040960079E-02       4    7    1        -0.5434767637E-01      0.1331221384E+00
          0                17           2             4    7     1      -0.8792553874E-03       4    7    1        -0.4590520583E-01      0.1124426955E+00
          0                18           2             4    7     1      -0.7430843955E-03       4    7    1        -0.3879582918E-01      0.9502860464E-01
          0                19           2             4    7     1      -0.6283072326E-03       4    7    1        -0.3280340704E-01      0.8035044209E-01
          0                20           2             4    7     1      -0.5314654179E-03       4    7    1        -0.2774737487E-01      0.6796592351E-01
                                                   Max.-Head-Change                         Max.-Flux-Residual
  Residual-Control   Outer-Iter.   Inner-Iter.     Column Row Layer    Maximum-Head-Change  Column Row Layer    Maximum-Flux-Residual          L2-NORM 
          0                21           2             4    7     1      -0.4496899197E-03       4    7    1        -0.2347794284E-01      0.5750814575E-01
          0                22           2             4    7     1      -0.3805830211E-03       5    7    1        -0.1987062066E-01      0.4867196817E-01
          0                23           2             4    7     1      -0.3221909273E-03       4    7    1        -0.1682132740E-01      0.4120291583E-01
          0                24           2             4    7     1      -0.2728109193E-03       4    7    1        -0.1424323450E-01      0.3488816679E-01
          0                25           2             4    7     1      -0.2310418289E-03       4    7    1        -0.1206250474E-01      0.2954655199E-01
          0                26           2             4    7     1      -0.1956903263E-03       4    7    1        -0.1021683168E-01      0.2502566213E-01
          0                27           2             4    7     1      -0.1657614979E-03       4    7    1        -0.8654272042E-02      0.2119824366E-01
          0                28           2             4    7     1      -0.1404232502E-03       4    7    1        -0.7331382876E-02      0.1795788723E-01
          0                29           2             4    7     1      -0.1189733391E-03       4    7    1        -0.6211500583E-02      0.1521478680E-01
          0                30           1             4    7     1      -0.1008061345E-03       4    7    1        -0.5263005648E-02      0.1289149183E-01
          0                31           1             4    7     1      -0.8541593876E-04       4    7    1        -0.4459496206E-02      0.1092333228E-01

    ------------------------------------------------
       NWT REQUIRED           31 OUTER ITERATIONS 
       AND A TOTAL OF         60 INNER ITERATIONS.
    ------------------------------------------------

 NO OUTPUT CONTROL FOR STRESS PERIOD    8   TIME STEP   13
 
 SOLVING FOR HEAD 
                                                   Max.-Head-Change                         Max.-Flux-Residual
  Residual-Control   Outer-Iter.   Inner-Iter.     Column Row Layer    Maximum-Head-Change  Column Row Layer    Maximum-Flux-Residual          L2-NORM 
          0                 1           2             4    7     1      -0.1427991942E+00       4    7    1        -0.7507378681E+01      0.1585415021E+02
          0                 2           2             5    8     1      -0.5970606324E-02       5    8    1        -0.3306717213E+00      0.8425237035E+00
          0                 3           2             4    7     1      -0.1224689051E-01       4    7    1        -0.6399445413E+00      0.1528987751E+01
          0                 4           2             4    7     1      -0.8810870624E-02       5    8    1        -0.4626568192E+00      0.1130520639E+01
          0                 5           2             4    7     1      -0.7340561448E-02       4    7    1        -0.3832492198E+00      0.9383626733E+00
          0                 6           2             4    7     1      -0.6046992441E-02       5    6    1        -0.3157254498E+00      0.7733479563E+00
          0                 7           2             4    7     1      -0.5017088696E-02       4    7    1        -0.2619371159E+00      0.6415988584E+00
          0                 8           2             4    7     1      -0.4177823501E-02       4    7    1        -0.2181198625E+00      0.5342748718E+00
          0                 9           2             4    7     1      -0.3489901908E-02       4    7    1        -0.1822041822E+00      0.4463006691E+00
          0                10           2             4    7     1      -0.2922565497E-02       4    7    1        -0.1525841266E+00      0.3737477709E+00
                                                   Max.-Head-Change                         Max.-Flux-Residual
  Residual-Control   Outer-Iter.   Inner-Iter.     Column Row Layer    Maximum-Head-Change  Column Row Layer    Maximum-Flux-Residual          L2-NORM 
          0                11           2             4    7     1      -0.2452458607E-02       4    7    1        -0.1280403274E+00      0.3136288741E+00
          0                12           2             4    7     1      -0.2061385867E-02       4    7    1        -0.1076227942E+00      0.2636178542E+00
          0                13           2             4    7     1      -0.1735072541E-02       4    7    1        -0.9058634116E-01      0.2218869957E+00
          0                14           2             4    7     1      -0.1462069830E-02       4    7    1        -0.7633314824E-01      0.1869745445E+00
          0                15           2             4    7     1      -0.1233201562E-02       4    7    1        -0.6438417279E-01      0.1577060725E+00
          0                16           2             4    7     1      -0.1040964532E-02       4    7    1        -0.5434767636E-01      0.1331221381E+00
          0                17           2             4    7     1      -0.8792591477E-03       4    7    1        -0.4590520580E-01      0.1124426953E+00
          0                18           2             4    7     1      -0.7430875739E-03       4    7    1        -0.3879582917E-01      0.9502860442E-01
          0                19           2             4    7     1      -0.6283099196E-03       4    7    1        -0.3280340701E-01      0.8035044188E-01
          0                20           2             4    7     1      -0.5314676912E-03       4    7    1        -0.2774737486E-01      0.6796592333E-01
                                                   Max.-Head-Change                         Max.-Flux-Residual
  Residual-Control   Outer-Iter.   Inner-Iter.     Column Row Layer    Maximum-Head-Change  Column Row Layer    Maximum-Flux-Residual          L2-NORM 
          0                21           2             4    7     1      -0.4496918428E-03       4    7    1        -0.2347794282E-01      0.5750814562E-01
          0                22           2             4    7     1      -0.3805846486E-03       5    7    1        -0.1987062062E-01      0.4867196805E-01
          0                23           2             4    7     1      -0.3221923052E-03       4    7    1        -0.1682132740E-01      0.4120291574E-01
          0                24           2             4    7     1      -0.2728120864E-03       4    7    1        -0.1424323450E-01      0.3488816670E-01
          0                25           2             4    7     1      -0.2310428167E-03       4    7    1        -0.1206250471E-01      0.2954655191E-01
          0                26           2             4    7     1      -0.1956911632E-03       4    7    1        -0.1021683167E-01      0.2502566207E-01
          0                27           2             4    7     1      -0.1657622067E-03       4    7    1        -0.8654272044E-02      0.2119824363E-01
          0                28           2             4    7     1      -0.1404238512E-03       4    7    1        -0.7331382884E-02      0.1795788718E-01
          0                29           2             4    7     1      -0.1189738474E-03       4    7    1        -0.6211500560E-02      0.1521478674E-01
          0                30           1             4    7     1      -0.1008065658E-03       4    7    1        -0.5263005658E-02      0.1289149184E-01
          0                31           1             4    7     1      -0.8541630405E-04       4    7    1        -0.4459496203E-02      0.1092333223E-01

    ------------------------------------------------
       NWT REQUIRED           31 OUTER ITERATIONS 
       AND A TOTAL OF         60 INNER ITERATIONS.
    ------------------------------------------------

 NO OUTPUT CONTROL FOR STRESS PERIOD    8   TIME STEP   14
 
 SOLVING FOR HEAD 
                                                   Max.-Head-Change                         Max.-Flux-Residual
  Residual-Control   Outer-Iter.   Inner-Iter.     Column Row Layer    Maximum-Head-Change  Column Row Layer    Maximum-Flux-Residual          L2-NORM 
          0                 1           2             4    7     1      -0.1406772313E+00       4    7    1        -0.7397740724E+01      0.1561372277E+02
          0                 2           2             5    8     1      -0.6288320012E-02       5    8    1        -0.3479731202E+00      0.8819868253E+00
          0                 3           2             4    7     1      -0.1222571792E-01       4    7    1        -0.6388491699E+00      0.1525404812E+01
          0                 4           2             4    7     1      -0.8813031406E-02       5    8    1        -0.4628284612E+00      0.1130882914E+01
          0                 5           2             4    7     1      -0.7340381021E-02       4    7    1        -0.3832382852E+00      0.9383265148E+00
          0                 6           2             4    7     1      -0.6047039888E-02       5    6    1        -0.3157271486E+00      0.7733515683E+00
          0                 7           2             4    7     1      -0.5017108329E-02       4    7    1        -0.2619370064E+00      0.6415984957E+00
          0                 8           2             4    7     1      -0.4177841829E-02       4    7    1        -0.2181198733E+00      0.5342749067E+00
          0                 9           2             4    7     1      -0.3489917020E-02       4    7    1        -0.1822041810E+00      0.4463006645E+00
          0                10           2             4    7     1      -0.2922578173E-02       4    7    1        -0.1525841266E+00      0.3737477705E+00
                                                   Max.-Head-Change                         Max.-Flux-Residual
  Residual-Control   Outer-Iter.   Inner-Iter.     Column Row Layer    Maximum-Head-Change  Column Row Layer    Maximum-Flux-Residual          L2-NORM 
          0                11           2             4    7     1      -0.2452469241E-02       4    7    1        -0.1280403273E+00      0.3136288733E+00
          0                12           2             4    7     1      -0.2061394805E-02       4    7    1        -0.1076227941E+00      0.2636178536E+00
          0                13           2             4    7     1      -0.1735080065E-02       4    7    1        -0.9058634111E-01      0.2218869952E+00
          0                14           2             4    7     1      -0.1462076169E-02       4    7    1        -0.7633314817E-01      0.1869745442E+00
          0                15           2             4    7     1      -0.1233206909E-02       4    7    1        -0.6438417275E-01      0.1577060722E+00
          0                16           2             4    7     1      -0.1040969045E-02       4    7    1        -0.5434767631E-01      0.1331221378E+00
          0                17           2             4    7     1      -0.8792629604E-03       4    7    1        -0.4590520578E-01      0.1124426950E+00
          0                18           2             4    7     1      -0.7430907959E-03       4    7    1        -0.3879582915E-01      0.9502860420E-01
          0                19           2             4    7     1      -0.6283126447E-03       4    7    1        -0.3280340701E-01      0.8035044172E-01
          0                20           2             4    7     1      -0.5314699954E-03       4    7    1        -0.2774737482E-01      0.6796592320E-01
                                                   Max.-Head-Change                         Max.-Flux-Residual
  Residual-Control   Outer-Iter.   Inner-Iter.     Column Row Layer    Maximum-Head-Change  Column Row Layer    Maximum-Flux-Residual          L2-NORM 
          0                21           2             4    7     1      -0.4496937927E-03       4    7    1        -0.2347794280E-01      0.5750814550E-01
          0                22           2             4    7     1      -0.3805862990E-03       5    7    1        -0.1987062060E-01      0.4867196796E-01
          0                23           2             4    7     1      -0.3221937023E-03       4    7    1        -0.1682132738E-01      0.4120291563E-01
          0                24           2             4    7     1      -0.2728132693E-03       4    7    1        -0.1424323448E-01      0.3488816663E-01
          0                25           2             4    7     1      -0.2310438184E-03       4    7    1        -0.1206250471E-01      0.2954655185E-01
          0                26           2             4    7     1      -0.1956920118E-03       4    7    1        -0.1021683168E-01      0.2502566202E-01
          0                27           2             4    7     1      -0.1657629254E-03       4    7    1        -0.8654272040E-02      0.2119824357E-01
          0                28           2             4    7     1      -0.1404244600E-03       4    7    1        -0.7331382893E-02      0.1795788715E-01
          0                29           2             4    7     1      -0.1189743639E-03       4    7    1        -0.6211500576E-02      0.1521478672E-01
          0                30           1             4    7     1      -0.1008070027E-03       4    7    1        -0.5263005640E-02      0.1289149178E-01
          0                31           1             4    7     1      -0.8541667434E-04       4    7    1        -0.4459496200E-02      0.1092333221E-01

    ------------------------------------------------
       NWT REQUIRED           31 OUTER ITERATIONS 
       AND A TOTAL OF         60 INNER ITERATIONS.
    ------------------------------------------------

 OUTPUT CONTROL FOR STRESS PERIOD    8   TIME STEP   15
    PRINT BUDGET
    SAVE BUDGET
 UBDSV1 SAVING "         STORAGE" ON UNIT 102 AT TIME STEP 15, STRESS PERIOD   8
 UBDSV2 SAVING "   CONSTANT HEAD" ON UNIT 102 AT TIME STEP 15, STRESS PERIOD   8
 UBDSV1 SAVING "FLOW RIGHT FACE " ON UNIT 102 AT TIME STEP 15, STRESS PERIOD   8
 UBDSV1 SAVING "FLOW FRONT FACE " ON UNIT 102 AT TIME STEP 15, STRESS PERIOD   8

  HEAD DEP BOUNDS   PERIOD    8   STEP    15
 BOUNDARY      1   LAYER   1   ROW    13   COL     1   RATE   -0.298997    
 BOUNDARY      2   LAYER   1   ROW    14   COL     9   RATE    0.285478    



 STREAM LISTING     PERIOD      8   STEP       15

 LAYER ROW COL. STREAM  RCH.  FLOW INTO     FLOW TO   FLOW OUT OF   OVRLND.     DIRECT     STREAM       STREAM     STREAM     STREAM   STREAMBED  STREAMBED
                SEG.NO.  NO.  STRM. RCH.    AQUIFER    STRM. RCH.    RUNOFF     PRECIP       ET          HEAD       DEPTH      WIDTH   CONDCTNC.   GRADIENT

   1    1    1     1     1    7.4999E+01  4.2231E-01   7.4577E+01  0.000E+00  0.000E+00  0.000E+00  1.09475E+03  1.698E+00  1.998E+01  8.990E-02  1.566E+00
   1    2    2     1     2    7.4577E+01  6.5422E-01   7.3923E+01  0.000E+00  0.000E+00  0.000E+00  1.08975E+03  1.692E+00  1.992E+01  1.394E-01  1.564E+00
   1    3    3     1     3    7.3923E+01  5.5813E-01   7.3365E+01  0.000E+00  0.000E+00  0.000E+00  1.08410E+03  1.685E+00  1.985E+01  1.191E-01  1.562E+00
   1    3    4     1     4    7.3365E+01  5.1411E-01   7.2851E+01  0.000E+00  0.000E+00  0.000E+00  1.07909E+03  1.679E+00  1.980E+01  1.099E-01  1.560E+00
   1    4    5     2     1    7.0851E+01  4.0967E-01   7.0441E+01  0.000E+00  0.000E+00  0.000E+00  1.07419E+03  2.252E+00  1.200E+01  7.800E-02  1.751E+00
   1    5    6     2     2    7.0441E+01  3.1471E-01   7.0126E+01  0.000E+00  0.000E+00  0.000E+00  1.06875E+03  2.245E+00  1.200E+01  6.000E-02  1.748E+00
   1    6    6     2     3    7.0126E+01  3.1435E-01   6.9812E+01  0.000E+00  0.000E+00  0.000E+00  1.06403E+03  2.239E+00  1.200E+01  6.000E-02  1.746E+00
   1    7    6     2     4    6.9812E+01  3.1399E-01   6.9498E+01  0.000E+00  0.000E+00  0.000E+00  1.05931E+03  2.233E+00  1.200E+01  6.000E-02  1.744E+00
   1    8    6     2     5    6.9498E+01  3.1363E-01   6.9184E+01  0.000E+00  0.000E+00  0.000E+00  1.05459E+03  2.227E+00  1.200E+01  6.000E-02  1.742E+00
   1    3    5     3     1    2.0000E+00  2.8252E-01   1.7175E+00  0.000E+00  0.000E+00  0.000E+00  1.07555E+03  1.909E+00  9.636E+00  7.227E-02  1.955E+00
   1    3    6     3     2    1.7175E+00  2.4905E-01   1.4684E+00  0.000E+00  0.000E+00  0.000E+00  1.07264E+03  1.727E+00  8.909E+00  6.682E-02  1.864E+00
   1    3    7     3     3    1.4684E+00  1.9718E-01   1.2712E+00  0.000E+00  0.000E+00  0.000E+00  1.06987E+03  1.555E+00  8.218E+00  5.547E-02  1.777E+00
   1    4    8     3     4    1.2712E+00  2.2567E-01   1.0456E+00  0.000E+00  0.000E+00  0.000E+00  1.06682E+03  1.364E+00  7.455E+00  6.709E-02  1.682E+00
   1    5    8     3     5    1.0456E+00  1.5790E-01   8.8768E-01  0.000E+00  0.000E+00  0.000E+00  1.06362E+03  1.164E+00  6.655E+00  4.991E-02  1.582E+00
   1    6    8     3     6    8.8768E-01  5.5980E-02   8.3170E-01  0.000E+00  0.000E+00  0.000E+00  1.06158E+03  1.036E+00  6.145E+00  1.844E-02  1.518E+00
   1    5   10     4     1    1.0000E+01  9.0919E-02   9.9091E+00  0.000E+00  0.000E+00  0.000E+00  1.07836E+03  6.368E-01  1.000E+01  2.500E-02  1.212E+00
   1    5    9     4     2    9.9091E+00  1.8158E-01   9.7275E+00  0.000E+00  0.000E+00  0.000E+00  1.07154E+03  6.315E-01  1.000E+01  5.000E-02  1.211E+00
   1    6    8     4     3    9.7275E+00  1.2689E-01   9.6006E+00  0.000E+00  0.000E+00  0.000E+00  1.06381E+03  6.256E-01  1.000E+01  3.500E-02  1.209E+00
   1    6    8     5     1    1.0432E+01  2.2686E-01   1.0205E+01  0.000E+00  0.000E+00  0.000E+00  1.05868E+03  6.790E-01  1.542E+01  6.166E-02  1.226E+00
   1    7    7     5     2    1.0205E+01  2.7894E-01   9.9265E+00  0.000E+00  0.000E+00  0.000E+00  1.05417E+03  6.732E-01  1.519E+01  7.594E-02  1.224E+00
   1    8    7     5     3    9.9265E+00  1.9221E-01   9.7343E+00  0.000E+00  0.000E+00  0.000E+00  1.04992E+03  6.676E-01  1.497E+01  5.241E-02  1.223E+00
   1    8    6     5     4    9.7343E+00  1.3577E-01   9.5985E+00  0.000E+00  0.000E+00  0.000E+00  1.04691E+03  6.637E-01  1.482E+01  3.706E-02  1.221E+00
   1    9    6     6     1    7.8783E+01  3.2569E-01   7.8457E+01  0.000E+00  0.000E+00  0.000E+00  1.04516E+03  2.428E+00  1.200E+01  6.000E-02  1.809E+00
   1   10    7     6     2    7.8457E+01  3.2533E-01   7.8132E+01  0.000E+00  0.000E+00  0.000E+00  1.04060E+03  2.422E+00  1.200E+01  6.000E-02  1.807E+00
   1   11    7     6     3    7.8132E+01  3.2497E-01   7.7807E+01  0.000E+00  0.000E+00  0.000E+00  1.03605E+03  2.416E+00  1.200E+01  6.000E-02  1.805E+00
   1   12    7     6     4    7.7807E+01  3.2461E-01   7.7482E+01  0.000E+00  0.000E+00  0.000E+00  1.03150E+03  2.410E+00  1.200E+01  6.000E-02  1.803E+00
   1   13    7     6     5    7.7482E+01  2.5843E-02   7.7456E+01  0.000E+00  0.000E+00  0.000E+00  1.02832E+03  2.407E+00  1.200E+01  2.400E-02  3.589E-01
   1   14    9     7     1    1.5000E+02  1.3317E+00   1.4867E+02  0.000E+00  0.000E+00  0.000E+00  1.03987E+03  2.288E+00  5.529E+01  5.593E-01  7.937E-01
   1   13    8     7     2    1.4867E+02  1.8002E+00   1.4687E+02  0.000E+00  0.000E+00  0.000E+00  1.03478E+03  2.279E+00  5.526E+01  6.148E-01  9.761E-01
   1   13    7     7     3    1.4687E+02  1.3689E+00   1.4550E+02  0.000E+00  0.000E+00  0.000E+00  1.02969E+03  2.271E+00  5.522E+01  5.585E-01  8.171E-01
   1   13    6     8     1    2.2296E+02  1.0165E+00   2.2194E+02  0.000E+00  0.000E+00  0.000E+00  1.02514E+03  3.265E+00  4.735E+01  4.825E-01  7.023E-01
   1   13    5     8     2    2.2194E+02  1.9992E-01   2.2174E+02  0.000E+00  0.000E+00  0.000E+00  1.01889E+03  3.262E+00  4.730E+01  4.820E-01  1.383E-01
   1   13    4     8     3    2.2174E+02 -1.9175E+00   2.2366E+02  0.000E+00  0.000E+00  0.000E+00  1.01264E+03  3.267E+00  4.737E+01  4.827E+00 -1.324E-01
   1   13    3     8     4    2.2366E+02 -3.0703E+00   2.2673E+02  0.000E+00  0.000E+00  0.000E+00  1.00641E+03  3.280E+00  4.757E+01  4.847E+00 -2.111E-01
   1   13    2     8     5    2.2673E+02 -2.5434E+00   2.2927E+02  0.000E+00  0.000E+00  0.000E+00  1.00017E+03  3.296E+00  4.779E+01  4.870E+00 -1.741E-01
   1   13    1     8     6    2.2927E+02 -2.0098E+00   2.3128E+02  0.000E+00  0.000E+00  0.000E+00  9.95183E+02  3.308E+00  4.797E+01  2.933E+00 -2.284E-01



 UBDSV3 SAVING "           GW ET" ON UNIT  61 AT TIME STEP 15, STRESS PERIOD   8
 UBDSV3 SAVING "    UZF RECHARGE" ON UNIT  61 AT TIME STEP 15, STRESS PERIOD   8
 UBDSV3 SAVING " SURFACE LEAKAGE" ON UNIT  61 AT TIME STEP 15, STRESS PERIOD   8
 UBDSV3 SAVING "       HORT+DUNN" ON UNIT  61 AT TIME STEP 15, STRESS PERIOD   8
 UBDSV3 SAVING "  STORAGE CHANGE" ON UNIT  61 AT TIME STEP 15, STRESS PERIOD   8


UNSATURATED ZONE PACKAGE VOLUMETRIC BUDGET FOR  TIME STEP    15 STRESS PERIOD    8
  ------------------------------------------------------------------------------



     CUMULATIVE VOLUMES      L**3       RATES FOR THIS TIME STEP      L**3/T
     ------------------                 ------------------------

           IN:                                      IN:
           ---                                      ---
        INFILTRATION =   275200566.6604          INFILTRATION =          91.4654

          OUT:                                     OUT:
          ----                                     ----
              UZF ET =   221726142.6755                UZF ET =          64.0822
        UZF RECHARGE =      388459.6891          UZF RECHARGE =       0.0000E+00

            IN - OUT =    53085964.2958              IN - OUT =          27.3832

          STORAGE:                                 STORAGE:
          --------                                 --------
      STORAGE CHANGE =    53086534.2514        STORAGE CHANGE =          27.3832

 PERCENT DISCREPANCY IS DIFFERENCE BETWEEN IN-OUT MINUS CHANGE IN STORAGE
 DIVIDED BY THE AVERAGE OF IN AND OUT TIMES 100

 PERCENT DISCREPANCY =          -0.00     PERCENT DISCREPANCY =           0.00






 

            AG WELLS      PERIOD    8   STEP  15
 AG WELL      1   LAYER   1   ROW     6   COL     4   RATE    -14.5321    
 AG WELL      2   LAYER   1   ROW     6   COL     5   RATE    -14.5221    
 AG WELL      3   LAYER   1   ROW     7   COL     4   RATE    -14.5296    
 AG WELL      4   LAYER   1   ROW     7   COL     5   RATE    -14.5096    
 AG WELL      5   LAYER   1   ROW     8   COL     4   RATE    -14.5296    
 AG WELL      6   LAYER   1   ROW     8   COL     5   RATE    -14.4346    
 
 

        GW IRRIGATION     PERIOD    8   STEP  15
 AG WELL      1   ROW     6   COL     4   RATE     14.5321    
 AG WELL      2   ROW     6   COL     5   RATE     14.5221    
 AG WELL      3   ROW     7   COL     4   RATE     14.5296    
 AG WELL      4   ROW     7   COL     5   RATE     14.5096    
 AG WELL      5   ROW     8   COL     4   RATE     14.5296    
 AG WELL      6   ROW     8   COL     5   RATE     14.4346    
 
1
  VOLUMETRIC BUDGET FOR AGRICULTURAL FIELDS AT TIME STEP   15, STRESS PERIOD   8
  ------------------------------------------------------------------------------

     CUMULATIVE VOLUMES      L**3       RATES FOR THIS TIME STEP      L**3/T
     ------------------                 ------------------------

           IN:                                      IN:
           ---                                      ---
               AG WELLS  =   199781168.0000                 AG WELLS  =          87.0579
      DIVERSION SEGMENTS =           0.0000        DIVERSION SEGMENTS =           0.0000
           GW IRRIGATION =           0.0000             GW IRRIGATION =           0.0000
           SW IRRIGATION =           0.0000             SW IRRIGATION =           0.0000
        SYSTEM LOSSES GW =           0.0000          SYSTEM LOSSES GW =           0.0000
        SYSTEM LOSSES SW =           0.0000          SYSTEM LOSSES SW =           0.0000

                TOTAL IN =   199781168.0000                  TOTAL IN =          87.0579

          OUT:                                     OUT:
          ----                                     ----
               AG WELLS  =           0.0000                 AG WELLS  =           0.0000
      DIVERSION SEGMENTS =           0.0000        DIVERSION SEGMENTS =           0.0000
           GW IRRIGATION =   199781168.0000             GW IRRIGATION =          87.0579
           SW IRRIGATION =           0.0000             SW IRRIGATION =           0.0000
        SYSTEM LOSSES GW =           0.0000          SYSTEM LOSSES GW =           0.0000
        SYSTEM LOSSES SW =           0.0000          SYSTEM LOSSES SW =           0.0000

               TOTAL OUT =   199781168.0000                 TOTAL OUT =          87.0579

                IN - OUT =           0.0000                  IN - OUT =           0.0000

     PERCENT DISCREPANCY =           0.00         PERCENT DISCREPANCY =           0.00



1
  VOLUMETRIC BUDGET FOR ENTIRE MODEL AT END OF TIME STEP   15, STRESS PERIOD   8
  ------------------------------------------------------------------------------

     CUMULATIVE VOLUMES      L**3       RATES FOR THIS TIME STEP      L**3/T
     ------------------                 ------------------------

           IN:                                      IN:
           ---                                      ---
             STORAGE     =   205625344.0000               STORAGE     =          86.2241
       CONSTANT HEAD     =           0.0000         CONSTANT HEAD     =           0.0000
     HEAD DEP BOUNDS     =     4904513.0000       HEAD DEP BOUNDS     =           0.2855
      STREAM LEAKAGE     =   219636688.0000        STREAM LEAKAGE     =          13.2603
        UZF RECHARGE     =      388459.5938          UZF RECHARGE     =           0.0000
               GW ET     =           0.0000                 GW ET     =           0.0000
     SURFACE LEAKAGE     =           0.0000       SURFACE LEAKAGE     =           0.0000
           AG WELLS      =           0.0000             AG WELLS      =           0.0000

                TOTAL IN =   430554976.0000                  TOTAL IN =          99.7698

          OUT:                                     OUT:
          ----                                     ----
             STORAGE     =    44070600.0000               STORAGE     =           1.3198
       CONSTANT HEAD     =           0.0000         CONSTANT HEAD     =           0.0000
     HEAD DEP BOUNDS     =     5067761.5000       HEAD DEP BOUNDS     =           0.2990
      STREAM LEAKAGE     =   173463504.0000        STREAM LEAKAGE     =           9.5409
        UZF RECHARGE     =           0.0000          UZF RECHARGE     =           0.0000
               GW ET     =     8173297.0000                 GW ET     =           1.5496
     SURFACE LEAKAGE     =           0.0000       SURFACE LEAKAGE     =           0.0000
           AG WELLS      =   199781168.0000             AG WELLS      =          87.0579

               TOTAL OUT =   430556320.0000                 TOTAL OUT =          99.7672

                IN - OUT =       -1344.0000                  IN - OUT =       2.6474E-03

     PERCENT DISCREPANCY =          -0.00         PERCENT DISCREPANCY =           0.00






         TIME SUMMARY AT END OF TIME STEP   15 IN STRESS PERIOD    8
                    SECONDS     MINUTES      HOURS       DAYS        YEARS
                    -----------------------------------------------------------
   TIME STEP LENGTH  87667.      1461.1      24.352      1.0147     2.77799E-03
 STRESS PERIOD TIME 1.31500E+06  21917.      365.28      15.220     4.16698E-02
         TOTAL TIME 1.71814E+07 2.86357E+05  4772.6      198.86     0.54445    
1
 
 SOLVING FOR HEAD 
                                                   Max.-Head-Change                         Max.-Flux-Residual
  Residual-Control   Outer-Iter.   Inner-Iter.     Column Row Layer    Maximum-Head-Change  Column Row Layer    Maximum-Flux-Residual          L2-NORM 
          0                 1           2             4    7     1      -0.1385469338E+00       4    7    1        -0.7287491327E+01      0.1538496383E+02
          0                 2           2             5    8     1      -0.6591729759E-02       5    8    1        -0.3644812351E+00      0.9200731850E+00
          0                 3           2             4    7     1      -0.1220446265E-01       4    7    1        -0.6377476653E+00      0.1521925382E+01
          0                 4           2             4    7     1      -0.8815200975E-02       5    8    1        -0.4629922626E+00      0.1131234746E+01
          0                 5           2             4    7     1      -0.7340200142E-02       4    7    1        -0.3832272889E+00      0.9382913964E+00
          0                 6           2             4    7     1      -0.6047087733E-02       5    6    1        -0.3157287743E+00      0.7733550766E+00
          0                 7           2             4    7     1      -0.5017128214E-02       4    7    1        -0.2619368964E+00      0.6415981435E+00
          0                 8           2             4    7     1      -0.4177860376E-02       4    7    1        -0.2181198842E+00      0.5342749408E+00
          0                 9           2             4    7     1      -0.3489932314E-02       4    7    1        -0.1822041798E+00      0.4463006601E+00
          0                10           2             4    7     1      -0.2922590999E-02       4    7    1        -0.1525841266E+00      0.3737477701E+00
                                                   Max.-Head-Change                         Max.-Flux-Residual
  Residual-Control   Outer-Iter.   Inner-Iter.     Column Row Layer    Maximum-Head-Change  Column Row Layer    Maximum-Flux-Residual          L2-NORM 
          0                11           2             4    7     1      -0.2452480003E-02       4    7    1        -0.1280403272E+00      0.3136288727E+00
          0                12           2             4    7     1      -0.2061403851E-02       4    7    1        -0.1076227940E+00      0.2636178531E+00
          0                13           2             4    7     1      -0.1735087679E-02       4    7    1        -0.9058634105E-01      0.2218869947E+00
          0                14           2             4    7     1      -0.1462082586E-02       4    7    1        -0.7633314816E-01      0.1869745438E+00
          0                15           2             4    7     1      -0.1233212321E-02       4    7    1        -0.6438417271E-01      0.1577060718E+00
          0                16           2             4    7     1      -0.1040973613E-02       4    7    1        -0.5434767627E-01      0.1331221376E+00
          0                17           2             4    7     1      -0.8792668186E-03       4    7    1        -0.4590520574E-01      0.1124426948E+00
          0                18           2             4    7     1      -0.7430940571E-03       4    7    1        -0.3879582913E-01      0.9502860401E-01
          0                19           2             4    7     1      -0.6283154018E-03       4    7    1        -0.3280340697E-01      0.8035044157E-01
          0                20           2             4    7     1      -0.5314723275E-03       4    7    1        -0.2774737480E-01      0.6796592306E-01
                                                   Max.-Head-Change                         Max.-Flux-Residual
  Residual-Control   Outer-Iter.   Inner-Iter.     Column Row Layer    Maximum-Head-Change  Column Row Layer    Maximum-Flux-Residual          L2-NORM 
          0                21           2             4    7     1      -0.4496957662E-03       4    7    1        -0.2347794279E-01      0.5750814539E-01
          0                22           2             4    7     1      -0.3805879688E-03       5    7    1        -0.1987062056E-01      0.4867196786E-01
          0                23           2             4    7     1      -0.3221951162E-03       4    7    1        -0.1682132737E-01      0.4120291556E-01
          0                24           2             4    7     1      -0.2728144667E-03       4    7    1        -0.1424323448E-01      0.3488816658E-01
          0                25           2             4    7     1      -0.2310448320E-03       4    7    1        -0.1206250470E-01      0.2954655180E-01
          0                26           2             4    7     1      -0.1956928707E-03       4    7    1        -0.1021683168E-01      0.2502566198E-01
          0                27           2             4    7     1      -0.1657636531E-03       4    7    1        -0.8654272041E-02      0.2119824353E-01
          0                28           2             4    7     1      -0.1404250763E-03       4    7    1        -0.7331382873E-02      0.1795788712E-01
          0                29           2             4    7     1      -0.1189748858E-03       4    7    1        -0.6211500561E-02      0.1521478668E-01
          0                30           1             4    7     1      -0.1008074450E-03       4    7    1        -0.5263005640E-02      0.1289149176E-01
          0                31           1             4    7     1      -0.8541704925E-04       4    7    1        -0.4459496211E-02      0.1092333222E-01

    ------------------------------------------------
       NWT REQUIRED           31 OUTER ITERATIONS 
       AND A TOTAL OF         60 INNER ITERATIONS.
    ------------------------------------------------

 NO OUTPUT CONTROL FOR STRESS PERIOD    8   TIME STEP   16
 
 SOLVING FOR HEAD 
                                                   Max.-Head-Change                         Max.-Flux-Residual
  Residual-Control   Outer-Iter.   Inner-Iter.     Column Row Layer    Maximum-Head-Change  Column Row Layer    Maximum-Flux-Residual          L2-NORM 
          0                 1           2             4    7     1      -0.1364115037E+00       4    7    1        -0.7176810307E+01      0.1516714686E+02
          0                 2           2             5    8     1      -0.6881756465E-02       5    8    1        -0.3802476337E+00      0.9568402006E+00
          0                 3           2             4    7     1      -0.1218315665E-01       4    7    1        -0.6366418250E+00      0.1518544967E+01
          0                 4           2             4    7     1      -0.8817376070E-02       5    8    1        -0.4631487326E+00      0.1131576575E+01
          0                 5           2             4    7     1      -0.7340019082E-02       4    7    1        -0.3832162487E+00      0.9382572744E+00
          0                 6           2             4    7     1      -0.6047135901E-02       5    6    1        -0.3157303312E+00      0.7733584855E+00
          0                 7           2             4    7     1      -0.5017148321E-02       4    7    1        -0.2619367859E+00      0.6415978014E+00
          0                 8           2             4    7     1      -0.4177879111E-02       4    7    1        -0.2181198951E+00      0.5342749739E+00
          0                 9           2             4    7     1      -0.3489947764E-02       4    7    1        -0.1822041785E+00      0.4463006559E+00
          0                10           2             4    7     1      -0.2922603958E-02       4    7    1        -0.1525841266E+00      0.3737477698E+00
                                                   Max.-Head-Change                         Max.-Flux-Residual
  Residual-Control   Outer-Iter.   Inner-Iter.     Column Row Layer    Maximum-Head-Change  Column Row Layer    Maximum-Flux-Residual          L2-NORM 
          0                11           2             4    7     1      -0.2452490875E-02       4    7    1        -0.1280403271E+00      0.3136288721E+00
          0                12           2             4    7     1      -0.2061412990E-02       4    7    1        -0.1076227940E+00      0.2636178527E+00
          0                13           2             4    7     1      -0.1735095371E-02       4    7    1        -0.9058634101E-01      0.2218869944E+00
          0                14           2             4    7     1      -0.1462089067E-02       4    7    1        -0.7633314810E-01      0.1869745434E+00
          0                15           2             4    7     1      -0.1233217788E-02       4    7    1        -0.6438417267E-01      0.1577060716E+00
          0                16           2             4    7     1      -0.1040978228E-02       4    7    1        -0.5434767624E-01      0.1331221373E+00
          0                17           2             4    7     1      -0.8792707164E-03       4    7    1        -0.4590520570E-01      0.1124426946E+00
          0                18           2             4    7     1      -0.7430973513E-03       4    7    1        -0.3879582911E-01      0.9502860386E-01
          0                19           2             4    7     1      -0.6283181873E-03       4    7    1        -0.3280340696E-01      0.8035044142E-01
          0                20           2             4    7     1      -0.5314746837E-03       4    7    1        -0.2774737478E-01      0.6796592295E-01
                                                   Max.-Head-Change                         Max.-Flux-Residual
  Residual-Control   Outer-Iter.   Inner-Iter.     Column Row Layer    Maximum-Head-Change  Column Row Layer    Maximum-Flux-Residual          L2-NORM 
          0                21           2             4    7     1      -0.4496977601E-03       4    7    1        -0.2347794278E-01      0.5750814529E-01
          0                22           2             4    7     1      -0.3805896558E-03       5    7    1        -0.1987062053E-01      0.4867196776E-01
          0                23           2             4    7     1      -0.3221965446E-03       4    7    1        -0.1682132736E-01      0.4120291549E-01
          0                24           2             4    7     1      -0.2728156760E-03       4    7    1        -0.1424323447E-01      0.3488816650E-01
          0                25           2             4    7     1      -0.2310458570E-03       4    7    1        -0.1206250470E-01      0.2954655174E-01
          0                26           2             4    7     1      -0.1956937377E-03       4    7    1        -0.1021683165E-01      0.2502566192E-01
          0                27           2             4    7     1      -0.1657643879E-03       4    7    1        -0.8654272039E-02      0.2119824351E-01
          0                28           2             4    7     1      -0.1404256987E-03       4    7    1        -0.7331382875E-02      0.1795788708E-01
          0                29           2             4    7     1      -0.1189754135E-03       4    7    1        -0.6211500570E-02      0.1521478667E-01
          0                30           1             4    7     1      -0.1008078917E-03       4    7    1        -0.5263005632E-02      0.1289149173E-01
          0                31           1             4    7     1      -0.8541742830E-04       4    7    1        -0.4459496211E-02      0.1092333217E-01

    ------------------------------------------------
       NWT REQUIRED           31 OUTER ITERATIONS 
       AND A TOTAL OF         60 INNER ITERATIONS.
    ------------------------------------------------

 NO OUTPUT CONTROL FOR STRESS PERIOD    8   TIME STEP   17
 
 SOLVING FOR HEAD 
                                                   Max.-Head-Change                         Max.-Flux-Residual
  Residual-Control   Outer-Iter.   Inner-Iter.     Column Row Layer    Maximum-Head-Change  Column Row Layer    Maximum-Flux-Residual          L2-NORM 
          0                 1           2             4    7     1      -0.1342740257E+00       4    7    1        -0.7065870974E+01      0.1495961173E+02
          0                 2           2             5    8     1      -0.7159210454E-02       5    8    1        -0.3953177108E+00      0.9923451040E+00
          0                 3           2             4    7     1      -0.1216183066E-01       4    7    1        -0.6355333817E+00      0.1515259420E+01
          0                 4           2             4    7     1      -0.8819553544E-02       5    8    1        -0.4632983194E+00      0.1131908807E+01
          0                 5           2             4    7     1      -0.7339838097E-02       4    7    1        -0.3832051820E+00      0.9382241084E+00
          0                 6           2             4    7     1      -0.6047184322E-02       5    6    1        -0.3157318232E+00      0.7733617992E+00
          0                 7           2             4    7     1      -0.5017168616E-02       4    7    1        -0.2619366751E+00      0.6415974690E+00
          0                 8           2             4    7     1      -0.4177898006E-02       4    7    1        -0.2181199060E+00      0.5342750062E+00
          0                 9           2             4    7     1      -0.3489963347E-02       4    7    1        -0.1822041774E+00      0.4463006519E+00
          0                10           2             4    7     1      -0.2922617029E-02       4    7    1        -0.1525841267E+00      0.3737477696E+00
                                                   Max.-Head-Change                         Max.-Flux-Residual
  Residual-Control   Outer-Iter.   Inner-Iter.     Column Row Layer    Maximum-Head-Change  Column Row Layer    Maximum-Flux-Residual          L2-NORM 
          0                11           2             4    7     1      -0.2452501842E-02       4    7    1        -0.1280403270E+00      0.3136288716E+00
          0                12           2             4    7     1      -0.2061422207E-02       4    7    1        -0.1076227939E+00      0.2636178523E+00
          0                13           2             4    7     1      -0.1735103130E-02       4    7    1        -0.9058634096E-01      0.2218869940E+00
          0                14           2             4    7     1      -0.1462095605E-02       4    7    1        -0.7633314805E-01      0.1869745432E+00
          0                15           2             4    7     1      -0.1233223302E-02       4    7    1        -0.6438417264E-01      0.1577060713E+00
          0                16           2             4    7     1      -0.1040982883E-02       4    7    1        -0.5434767623E-01      0.1331221372E+00
          0                17           2             4    7     1      -0.8792746483E-03       4    7    1        -0.4590520569E-01      0.1124426945E+00
          0                18           2             4    7     1      -0.7431006737E-03       4    7    1        -0.3879582908E-01      0.9502860371E-01
          0                19           2             4    7     1      -0.6283209970E-03       4    7    1        -0.3280340696E-01      0.8035044132E-01
          0                20           2             4    7     1      -0.5314770604E-03       4    7    1        -0.2774737477E-01      0.6796592285E-01
                                                   Max.-Head-Change                         Max.-Flux-Residual
  Residual-Control   Outer-Iter.   Inner-Iter.     Column Row Layer    Maximum-Head-Change  Column Row Layer    Maximum-Flux-Residual          L2-NORM 
          0                21           2             4    7     1      -0.4496997705E-03       4    7    1        -0.2347794277E-01      0.5750814520E-01
          0                22           2             4    7     1      -0.3805913576E-03       5    7    1        -0.1987062051E-01      0.4867196770E-01
          0                23           2             4    7     1      -0.3221979852E-03       4    7    1        -0.1682132736E-01      0.4120291543E-01
          0                24           2             4    7     1      -0.2728168961E-03       4    7    1        -0.1424323448E-01      0.3488816645E-01
          0                25           2             4    7     1      -0.2310468899E-03       4    7    1        -0.1206250469E-01      0.2954655170E-01
          0                26           2             4    7     1      -0.1956946132E-03       4    7    1        -0.1021683165E-01      0.2502566188E-01
          0                27           2             4    7     1      -0.1657651288E-03       4    7    1        -0.8654272015E-02      0.2119824347E-01
          0                28           2             4    7     1      -0.1404263267E-03       4    7    1        -0.7331382878E-02      0.1795788705E-01
          0                29           2             4    7     1      -0.1189759455E-03       4    7    1        -0.6211500568E-02      0.1521478665E-01
          0                30           1             4    7     1      -0.1008083429E-03       4    7    1        -0.5263005628E-02      0.1289149172E-01
          0                31           1             4    7     1      -0.8541780984E-04       4    7    1        -0.4459496185E-02      0.1092333214E-01

    ------------------------------------------------
       NWT REQUIRED           31 OUTER ITERATIONS 
       AND A TOTAL OF         60 INNER ITERATIONS.
    ------------------------------------------------

 NO OUTPUT CONTROL FOR STRESS PERIOD    8   TIME STEP   18
 
 SOLVING FOR HEAD 
                                                   Max.-Head-Change                         Max.-Flux-Residual
  Residual-Control   Outer-Iter.   Inner-Iter.     Column Row Layer    Maximum-Head-Change  Column Row Layer    Maximum-Flux-Residual          L2-NORM 
          0                 1           2             4    7     1      -0.1321370790E+00       4    7    1        -0.6954818609E+01      0.1476175669E+02
          0                 2           2             5    8     1      -0.7424855594E-02       5    8    1        -0.4097342680E+00      0.1026645684E+01
          0                 3           2             4    7     1      -0.1214051043E-01       4    7    1        -0.6344237880E+00      0.1512064810E+01
          0                 4           2             4    7     1      -0.8821730769E-02       5    8    1        -0.4634414455E+00      0.1132231830E+01
          0                 5           2             4    7     1      -0.7339657404E-02       4    7    1        -0.3831941033E+00      0.9381918597E+00
          0                 6           2             4    7     1      -0.6047232932E-02       5    6    1        -0.3157332542E+00      0.7733650214E+00
          0                 7           2             4    7     1      -0.5017189076E-02       4    7    1        -0.2619365642E+00      0.6415971460E+00
          0                 8           2             4    7     1      -0.4177917036E-02       4    7    1        -0.2181199170E+00      0.5342750378E+00
          0                 9           2             4    7     1      -0.3489979044E-02       4    7    1        -0.1822041762E+00      0.4463006482E+00
          0                10           2             4    7     1      -0.2922630194E-02       4    7    1        -0.1525841267E+00      0.3737477695E+00
                                                   Max.-Head-Change                         Max.-Flux-Residual
  Residual-Control   Outer-Iter.   Inner-Iter.     Column Row Layer    Maximum-Head-Change  Column Row Layer    Maximum-Flux-Residual          L2-NORM 
          0                11           2             4    7     1      -0.2452512887E-02       4    7    1        -0.1280403269E+00      0.3136288712E+00
          0                12           2             4    7     1      -0.2061431492E-02       4    7    1        -0.1076227939E+00      0.2636178520E+00
          0                13           2             4    7     1      -0.1735110944E-02       4    7    1        -0.9058634090E-01      0.2218869938E+00
          0                14           2             4    7     1      -0.1462102190E-02       4    7    1        -0.7633314802E-01      0.1869745430E+00
          0                15           2             4    7     1      -0.1233228857E-02       4    7    1        -0.6438417260E-01      0.1577060712E+00
          0                16           2             4    7     1      -0.1040987572E-02       4    7    1        -0.5434767620E-01      0.1331221370E+00
          0                17           2             4    7     1      -0.8792786084E-03       4    7    1        -0.4590520566E-01      0.1124426944E+00
          0                18           2             4    7     1      -0.7431040209E-03       4    7    1        -0.3879582906E-01      0.9502860370E-01
          0                19           2             4    7     1      -0.6283238261E-03       4    7    1        -0.3280340692E-01      0.8035044120E-01
          0                20           2             4    7     1      -0.5314794543E-03       4    7    1        -0.2774737478E-01      0.6796592296E-01
                                                   Max.-Head-Change                         Max.-Flux-Residual
  Residual-Control   Outer-Iter.   Inner-Iter.     Column Row Layer    Maximum-Head-Change  Column Row Layer    Maximum-Flux-Residual          L2-NORM 
          0                21           2             4    7     1      -0.4497017959E-03       4    7    1        -0.2347794276E-01      0.5750814527E-01
          0                22           2             4    7     1      -0.3805930715E-03       5    7    1        -0.1987062049E-01      0.4867196766E-01
          0                23           2             4    7     1      -0.3221994366E-03       4    7    1        -0.1682132736E-01      0.4120291570E-01
          0                24           2             4    7     1      -0.2728181249E-03       4    7    1        -0.1424323446E-01      0.3488816665E-01
          0                25           2             4    7     1      -0.2310479303E-03       4    7    1        -0.1206250468E-01      0.2954655170E-01
          0                26           2             4    7     1      -0.1956954945E-03       4    7    1        -0.1021683165E-01      0.2502566188E-01
          0                27           2             4    7     1      -0.1657658758E-03       4    7    1        -0.8654272027E-02      0.2119824344E-01
          0                28           2             4    7     1      -0.1404269586E-03       4    7    1        -0.7331382853E-02      0.1795788704E-01
          0                29           2             4    7     1      -0.1189764815E-03       4    7    1        -0.6211500573E-02      0.1521478761E-01
          0                30           1             4    7     1      -0.1008087968E-03       4    7    1        -0.5263005629E-02      0.1289149225E-01
          0                31           1             4    7     1      -0.8541819451E-04       4    7    1        -0.4459496191E-02      0.1092333223E-01

    ------------------------------------------------
       NWT REQUIRED           31 OUTER ITERATIONS 
       AND A TOTAL OF         60 INNER ITERATIONS.
    ------------------------------------------------

 NO OUTPUT CONTROL FOR STRESS PERIOD    8   TIME STEP   19
 
 SOLVING FOR HEAD 
                                                   Max.-Head-Change                         Max.-Flux-Residual
  Residual-Control   Outer-Iter.   Inner-Iter.     Column Row Layer    Maximum-Head-Change  Column Row Layer    Maximum-Flux-Residual          L2-NORM 
          0                 1           2             4    7     1      -0.1300031557E+00       4    7    1        -0.6843794236E+01      0.1457300835E+02
          0                 2           2             5    8     1      -0.7679414280E-02       5    8    1        -0.4235376969E+00      0.1059797283E+01
          0                 3           2             4    7     1      -0.1211922078E-01       4    7    1        -0.6333144539E+00      0.1508957315E+01
          0                 4           2             4    7     1      -0.8823905204E-02       5    8    1        -0.4635785096E+00      0.1132546022E+01
          0                 5           2             4    7     1      -0.7339477211E-02       4    7    1        -0.3831830267E+00      0.9381604907E+00
          0                 6           2             4    7     1      -0.6047281675E-02       5    6    1        -0.3157346275E+00      0.7733681559E+00
          0                 7           2             4    7     1      -0.5017209673E-02       4    7    1        -0.2619364533E+00      0.6415968318E+00
          0                 8           2             4    7     1      -0.4177936178E-02       4    7    1        -0.2181199279E+00      0.5342750686E+00
          0                 9           2             4    7     1      -0.3489994835E-02       4    7    1        -0.1822041750E+00      0.4463006445E+00
          0                10           2             4    7     1      -0.2922643438E-02       4    7    1        -0.1525841267E+00      0.3737477693E+00
                                                   Max.-Head-Change                         Max.-Flux-Residual
  Residual-Control   Outer-Iter.   Inner-Iter.     Column Row Layer    Maximum-Head-Change  Column Row Layer    Maximum-Flux-Residual          L2-NORM 
          0                11           2             4    7     1      -0.2452523998E-02       4    7    1        -0.1280403269E+00      0.3136288708E+00
          0                12           2             4    7     1      -0.2061440832E-02       4    7    1        -0.1076227938E+00      0.2636178517E+00
          0                13           2             4    7     1      -0.1735118806E-02       4    7    1        -0.9058634087E-01      0.2218869935E+00
          0                14           2             4    7     1      -0.1462108814E-02       4    7    1        -0.7633314799E-01      0.1869745427E+00
          0                15           2             4    7     1      -0.1233234444E-02       4    7    1        -0.6438417258E-01      0.1577060710E+00
          0                16           2             4    7     1      -0.1040992288E-02       4    7    1        -0.5434767616E-01      0.1331221369E+00
          0                17           2             4    7     1      -0.8792825923E-03       4    7    1        -0.4590520564E-01      0.1124426942E+00
          0                18           2             4    7     1      -0.7431073873E-03       4    7    1        -0.3879582904E-01      0.9502860350E-01
          0                19           2             4    7     1      -0.6283266737E-03       4    7    1        -0.3280340693E-01      0.8035044113E-01
          0                20           2             4    7     1      -0.5314818620E-03       4    7    1        -0.2774737474E-01      0.6796592268E-01
                                                   Max.-Head-Change                         Max.-Flux-Residual
  Residual-Control   Outer-Iter.   Inner-Iter.     Column Row Layer    Maximum-Head-Change  Column Row Layer    Maximum-Flux-Residual          L2-NORM 
          0                21           2             4    7     1      -0.4497038333E-03       4    7    1        -0.2347794273E-01      0.5750814507E-01
          0                22           2             4    7     1      -0.3805947957E-03       5    7    1        -0.1987062048E-01      0.4867196758E-01
          0                23           2             4    7     1      -0.3222008962E-03       4    7    1        -0.1682132734E-01      0.4120291533E-01
          0                24           2             4    7     1      -0.2728193607E-03       4    7    1        -0.1424323445E-01      0.3488816638E-01
          0                25           2             4    7     1      -0.2310489771E-03       4    7    1        -0.1206250468E-01      0.2954655163E-01
          0                26           2             4    7     1      -0.1956963814E-03       4    7    1        -0.1021683166E-01      0.2502566184E-01
          0                27           2             4    7     1      -0.1657666267E-03       4    7    1        -0.8654272013E-02      0.2119824341E-01
          0                28           2             4    7     1      -0.1404275952E-03       4    7    1        -0.7331382859E-02      0.1795788701E-01
          0                29           2             4    7     1      -0.1189770202E-03       4    7    1        -0.6211500551E-02      0.1521478661E-01
          0                30           1             4    7     1      -0.1008092535E-03       4    7    1        -0.5263005626E-02      0.1289149168E-01
          0                31           1             4    7     1      -0.8541858168E-04       4    7    1        -0.4459496186E-02      0.1092333213E-01

    ------------------------------------------------
       NWT REQUIRED           31 OUTER ITERATIONS 
       AND A TOTAL OF         60 INNER ITERATIONS.
    ------------------------------------------------

 NO OUTPUT CONTROL FOR STRESS PERIOD    8   TIME STEP   20
 
 SOLVING FOR HEAD 
                                                   Max.-Head-Change                         Max.-Flux-Residual
  Residual-Control   Outer-Iter.   Inner-Iter.     Column Row Layer    Maximum-Head-Change  Column Row Layer    Maximum-Flux-Residual          L2-NORM 
          0                 1           2             4    7     1      -0.1278746806E+00       4    7    1        -0.6732934341E+01      0.1439284739E+02
          0                 2           2             5    8     1      -0.7923542338E-02       5    8    1        -0.4367646704E+00      0.1091850399E+01
          0                 3           2             4    7     1      -0.1209798590E-01       4    7    1        -0.6322067436E+00      0.1505933556E+01
          0                 4           2             4    7     1      -0.8826074374E-02       5    8    1        -0.4637098742E+00      0.1132851719E+01
          0                 5           2             4    7     1      -0.7339297720E-02       4    7    1        -0.3831719659E+00      0.9381299678E+00
          0                 6           2             4    7     1      -0.6047330492E-02       5    6    1        -0.3157359463E+00      0.7733712060E+00
          0                 7           2             4    7     1      -0.5017230382E-02       4    7    1        -0.2619363427E+00      0.6415965262E+00
          0                 8           2             4    7     1      -0.4177955409E-02       4    7    1        -0.2181199389E+00      0.5342750986E+00
          0                 9           2             4    7     1      -0.3490010701E-02       4    7    1        -0.1822041738E+00      0.4463006411E+00
          0                10           2             4    7     1      -0.2922656744E-02       4    7    1        -0.1525841268E+00      0.3737477693E+00
                                                   Max.-Head-Change                         Max.-Flux-Residual
  Residual-Control   Outer-Iter.   Inner-Iter.     Column Row Layer    Maximum-Head-Change  Column Row Layer    Maximum-Flux-Residual          L2-NORM 
          0                11           2             4    7     1      -0.2452535162E-02       4    7    1        -0.1280403268E+00      0.3136288705E+00
          0                12           2             4    7     1      -0.2061450215E-02       4    7    1        -0.1076227938E+00      0.2636178515E+00
          0                13           2             4    7     1      -0.1735126704E-02       4    7    1        -0.9058634083E-01      0.2218869933E+00
          0                14           2             4    7     1      -0.1462115470E-02       4    7    1        -0.7633314795E-01      0.1869745426E+00
          0                15           2             4    7     1      -0.1233240058E-02       4    7    1        -0.6438417256E-01      0.1577060708E+00
          0                16           2             4    7     1      -0.1040997027E-02       4    7    1        -0.5434767616E-01      0.1331221367E+00
          0                17           2             4    7     1      -0.8792865946E-03       4    7    1        -0.4590520561E-01      0.1124426941E+00
          0                18           2             4    7     1      -0.7431107700E-03       4    7    1        -0.3879582902E-01      0.9502860341E-01
          0                19           2             4    7     1      -0.6283295334E-03       4    7    1        -0.3280340690E-01      0.8035044105E-01
          0                20           2             4    7     1      -0.5314842812E-03       4    7    1        -0.2774737474E-01      0.6796592263E-01
                                                   Max.-Head-Change                         Max.-Flux-Residual
  Residual-Control   Outer-Iter.   Inner-Iter.     Column Row Layer    Maximum-Head-Change  Column Row Layer    Maximum-Flux-Residual          L2-NORM 
          0                21           2             4    7     1      -0.4497058807E-03       4    7    1        -0.2347794275E-01      0.5750814503E-01
          0                22           2             4    7     1      -0.3805965281E-03       5    7    1        -0.1987062047E-01      0.4867196754E-01
          0                23           2             4    7     1      -0.3222023630E-03       4    7    1        -0.1682132733E-01      0.4120291531E-01
          0                24           2             4    7     1      -0.2728206027E-03       4    7    1        -0.1424323444E-01      0.3488816634E-01
          0                25           2             4    7     1      -0.2310500286E-03       4    7    1        -0.1206250466E-01      0.2954655162E-01
          0                26           2             4    7     1      -0.1956972722E-03       4    7    1        -0.1021683165E-01      0.2502566182E-01
          0                27           2             4    7     1      -0.1657673813E-03       4    7    1        -0.8654272014E-02      0.2119824340E-01
          0                28           2             4    7     1      -0.1404282343E-03       4    7    1        -0.7331382852E-02      0.1795788699E-01
          0                29           2             4    7     1      -0.1189775618E-03       4    7    1        -0.6211500558E-02      0.1521478660E-01
          0                30           1             4    7     1      -0.1008097125E-03       4    7    1        -0.5263005630E-02      0.1289149168E-01
          0                31           1             4    7     1      -0.8541897023E-04       4    7    1        -0.4459496186E-02      0.1092333212E-01

    ------------------------------------------------
       NWT REQUIRED           31 OUTER ITERATIONS 
       AND A TOTAL OF         60 INNER ITERATIONS.
    ------------------------------------------------

 NO OUTPUT CONTROL FOR STRESS PERIOD    8   TIME STEP   21
 
 SOLVING FOR HEAD 
                                                   Max.-Head-Change                         Max.-Flux-Residual
  Residual-Control   Outer-Iter.   Inner-Iter.     Column Row Layer    Maximum-Head-Change  Column Row Layer    Maximum-Flux-Residual          L2-NORM 
          0                 1           2             4    7     1      -0.1257534702E+00       4    7    1        -0.6622342722E+01      0.1422078835E+02
          0                 2           2             5    8     1      -0.8157848231E-02       5    8    1        -0.4494491951E+00      0.1122858820E+01
          0                 3           2             4    7     1      -0.1207682392E-01       4    7    1        -0.6311016953E+00      0.1502990023E+01
          0                 4           2             4    7     1      -0.8828236427E-02       5    8    1        -0.4638358748E+00      0.1133149273E+01
          0                 5           2             4    7     1      -0.7339119081E-02       4    7    1        -0.3831609313E+00      0.9381002563E+00
          0                 6           2             4    7     1      -0.6047379339E-02       5    6    1        -0.3157372139E+00      0.7733741752E+00
          0                 7           2             4    7     1      -0.5017251184E-02       4    7    1        -0.2619362322E+00      0.6415962288E+00
          0                 8           2             4    7     1      -0.4177974711E-02       4    7    1        -0.2181199499E+00      0.5342751279E+00
          0                 9           2             4    7     1      -0.3490026625E-02       4    7    1        -0.1822041726E+00      0.4463006378E+00
          0                10           2             4    7     1      -0.2922670100E-02       4    7    1        -0.1525841268E+00      0.3737477694E+00
                                                   Max.-Head-Change                         Max.-Flux-Residual
  Residual-Control   Outer-Iter.   Inner-Iter.     Column Row Layer    Maximum-Head-Change  Column Row Layer    Maximum-Flux-Residual          L2-NORM 
          0                11           2             4    7     1      -0.2452546367E-02       4    7    1        -0.1280403267E+00      0.3136288703E+00
          0                12           2             4    7     1      -0.2061459634E-02       4    7    1        -0.1076227937E+00      0.2636178513E+00
          0                13           2             4    7     1      -0.1735134632E-02       4    7    1        -0.9058634080E-01      0.2218869932E+00
          0                14           2             4    7     1      -0.1462122150E-02       4    7    1        -0.7633314791E-01      0.1869745425E+00
          0                15           2             4    7     1      -0.1233245692E-02       4    7    1        -0.6438417253E-01      0.1577060707E+00
          0                16           2             4    7     1      -0.1041001783E-02       4    7    1        -0.5434767614E-01      0.1331221366E+00
          0                17           2             4    7     1      -0.8792906120E-03       4    7    1        -0.4590520561E-01      0.1124426940E+00
          0                18           2             4    7     1      -0.7431141657E-03       4    7    1        -0.3879582902E-01      0.9502860336E-01
          0                19           2             4    7     1      -0.6283324043E-03       4    7    1        -0.3280340689E-01      0.8035044098E-01
          0                20           2             4    7     1      -0.5314867096E-03       4    7    1        -0.2774737473E-01      0.6796592257E-01
                                                   Max.-Head-Change                         Max.-Flux-Residual
  Residual-Control   Outer-Iter.   Inner-Iter.     Column Row Layer    Maximum-Head-Change  Column Row Layer    Maximum-Flux-Residual          L2-NORM 
          0                21           2             4    7     1      -0.4497079352E-03       4    7    1        -0.2347794273E-01      0.5750814497E-01
          0                22           2             4    7     1      -0.3805982668E-03       5    7    1        -0.1987062047E-01      0.4867196751E-01
          0                23           2             4    7     1      -0.3222038352E-03       4    7    1        -0.1682132733E-01      0.4120291527E-01
          0                24           2             4    7     1      -0.2728218491E-03       4    7    1        -0.1424323444E-01      0.3488816631E-01
          0                25           2             4    7     1      -0.2310510845E-03       4    7    1        -0.1206250467E-01      0.2954655181E-01
          0                26           2             4    7     1      -0.1956981661E-03       4    7    1        -0.1021683165E-01      0.2502566194E-01
          0                27           2             4    7     1      -0.1657681388E-03       4    7    1        -0.8654272022E-02      0.2119824340E-01
          0                28           2             4    7     1      -0.1404288763E-03       4    7    1        -0.7331382859E-02      0.1795788699E-01
          0                29           2             4    7     1      -0.1189781052E-03       4    7    1        -0.6211500543E-02      0.1521478658E-01
          0                30           1             4    7     1      -0.1008101732E-03       4    7    1        -0.5263005628E-02      0.1289149168E-01
          0                31           1             4    7     1      -0.8541936078E-04       4    7    1        -0.4459496179E-02      0.1092333212E-01

    ------------------------------------------------
       NWT REQUIRED           31 OUTER ITERATIONS 
       AND A TOTAL OF         60 INNER ITERATIONS.
    ------------------------------------------------

 NO OUTPUT CONTROL FOR STRESS PERIOD    8   TIME STEP   22
 
 SOLVING FOR HEAD 
                                                   Max.-Head-Change                         Max.-Flux-Residual
  Residual-Control   Outer-Iter.   Inner-Iter.     Column Row Layer    Maximum-Head-Change  Column Row Layer    Maximum-Flux-Residual          L2-NORM 
          0                 1           2             4    7     1      -0.1236417101E+00       4    7    1        -0.6512142749E+01      0.1405638415E+02
          0                 2           2             5    8     1      -0.8382910641E-02       5    8    1        -0.4616236041E+00      0.1152868002E+01
          0                 3           2             4    7     1      -0.1205575660E-01       4    7    1        -0.6300005424E+00      0.1500123721E+01
          0                 4           2             4    7     1      -0.8830389131E-02       5    8    1        -0.4639568307E+00      0.1133438981E+01
          0                 5           2             4    7     1      -0.7338941475E-02       4    7    1        -0.3831499352E+00      0.9380713264E+00
          0                 6           2             4    7     1      -0.6047428165E-02       5    6    1        -0.3157384329E+00      0.7733770665E+00
          0                 7           2             4    7     1      -0.5017272056E-02       4    7    1        -0.2619361222E+00      0.6415959394E+00
          0                 8           2             4    7     1      -0.4177994061E-02       4    7    1        -0.2181199608E+00      0.5342751565E+00
          0                 9           2             4    7     1      -0.3490042592E-02       4    7    1        -0.1822041715E+00      0.4463006347E+00
          0                10           2             4    7     1      -0.2922683490E-02       4    7    1        -0.1525841269E+00      0.3737477694E+00
                                                   Max.-Head-Change                         Max.-Flux-Residual
  Residual-Control   Outer-Iter.   Inner-Iter.     Column Row Layer    Maximum-Head-Change  Column Row Layer    Maximum-Flux-Residual          L2-NORM 
          0                11           2             4    7     1      -0.2452557602E-02       4    7    1        -0.1280403267E+00      0.3136288701E+00
          0                12           2             4    7     1      -0.2061469077E-02       4    7    1        -0.1076227937E+00      0.2636178511E+00
          0                13           2             4    7     1      -0.1735142580E-02       4    7    1        -0.9058634076E-01      0.2218869930E+00
          0                14           2             4    7     1      -0.1462128848E-02       4    7    1        -0.7633314790E-01      0.1869745423E+00
          0                15           2             4    7     1      -0.1233251342E-02       4    7    1        -0.6438417252E-01      0.1577060706E+00
          0                16           2             4    7     1      -0.1041006552E-02       4    7    1        -0.5434767611E-01      0.1331221366E+00
          0                17           2             4    7     1      -0.8792946398E-03       4    7    1        -0.4590520559E-01      0.1124426940E+00
          0                18           2             4    7     1      -0.7431175699E-03       4    7    1        -0.3879582902E-01      0.9502860330E-01
          0                19           2             4    7     1      -0.6283352830E-03       4    7    1        -0.3280340688E-01      0.8035044095E-01
          0                20           2             4    7     1      -0.5314891444E-03       4    7    1        -0.2774737470E-01      0.6796592254E-01
                                                   Max.-Head-Change                         Max.-Flux-Residual
  Residual-Control   Outer-Iter.   Inner-Iter.     Column Row Layer    Maximum-Head-Change  Column Row Layer    Maximum-Flux-Residual          L2-NORM 
          0                21           2             4    7     1      -0.4497099950E-03       4    7    1        -0.2347794270E-01      0.5750814494E-01
          0                22           2             4    7     1      -0.3806000103E-03       5    7    1        -0.1987062047E-01      0.4867196749E-01
          0                23           2             4    7     1      -0.3222053115E-03       4    7    1        -0.1682132732E-01      0.4120291524E-01
          0                24           2             4    7     1      -0.2728230986E-03       4    7    1        -0.1424323442E-01      0.3488816629E-01
          0                25           2             4    7     1      -0.2310521429E-03       4    7    1        -0.1206250466E-01      0.2954655157E-01
          0                26           2             4    7     1      -0.1956990627E-03       4    7    1        -0.1021683164E-01      0.2502566177E-01
          0                27           2             4    7     1      -0.1657688981E-03       4    7    1        -0.8654272013E-02      0.2119824338E-01
          0                28           2             4    7     1      -0.1404295196E-03       4    7    1        -0.7331382857E-02      0.1795788699E-01
          0                29           2             4    7     1      -0.1189786506E-03       4    7    1        -0.6211500549E-02      0.1521478657E-01
          0                30           1             4    7     1      -0.1008106346E-03       4    7    1        -0.5263005614E-02      0.1289149165E-01
          0                31           1             4    7     1      -0.8541975195E-04       4    7    1        -0.4459496183E-02      0.1092333210E-01

    ------------------------------------------------
       NWT REQUIRED           31 OUTER ITERATIONS 
       AND A TOTAL OF         60 INNER ITERATIONS.
    ------------------------------------------------

 NO OUTPUT CONTROL FOR STRESS PERIOD    8   TIME STEP   23
 
 SOLVING FOR HEAD 
                                                   Max.-Head-Change                         Max.-Flux-Residual
  Residual-Control   Outer-Iter.   Inner-Iter.     Column Row Layer    Maximum-Head-Change  Column Row Layer    Maximum-Flux-Residual          L2-NORM 
          0                 1           2             4    7     1      -0.1215411316E+00       4    7    1        -0.6402433119E+01      0.1389922081E+02
          0                 2           2             5    8     1      -0.8599268059E-02       5    8    1        -0.4733179031E+00      0.1181926015E+01
          0                 3           2             4    7     1      -0.1203480123E-01       4    7    1        -0.6289042721E+00      0.1497331560E+01
          0                 4           2             4    7     1      -0.8832530721E-02       5    8    1        -0.4640730386E+00      0.1133721156E+01
          0                 5           2             4    7     1      -0.7338765046E-02       4    7    1        -0.3831389875E+00      0.9380431471E+00
          0                 6           2             4    7     1      -0.6047476927E-02       5    6    1        -0.3157396059E+00      0.7733798829E+00
          0                 7           2             4    7     1      -0.5017292978E-02       4    7    1        -0.2619360127E+00      0.6415956575E+00
          0                 8           2             4    7     1      -0.4178013444E-02       4    7    1        -0.2181199716E+00      0.5342751845E+00
          0                 9           2             4    7     1      -0.3490058586E-02       4    7    1        -0.1822041703E+00      0.4463006317E+00
          0                10           2             4    7     1      -0.2922696904E-02       4    7    1        -0.1525841269E+00      0.3737477696E+00
                                                   Max.-Head-Change                         Max.-Flux-Residual
  Residual-Control   Outer-Iter.   Inner-Iter.     Column Row Layer    Maximum-Head-Change  Column Row Layer    Maximum-Flux-Residual          L2-NORM 
          0                11           2             4    7     1      -0.2452568857E-02       4    7    1        -0.1280403266E+00      0.3136288699E+00
          0                12           2             4    7     1      -0.2061478537E-02       4    7    1        -0.1076227937E+00      0.2636178510E+00
          0                13           2             4    7     1      -0.1735150543E-02       4    7    1        -0.9058634073E-01      0.2218869929E+00
          0                14           2             4    7     1      -0.1462135558E-02       4    7    1        -0.7633314789E-01      0.1869745423E+00
          0                15           2             4    7     1      -0.1233257001E-02       4    7    1        -0.6438417249E-01      0.1577060706E+00
          0                16           2             4    7     1      -0.1041011329E-02       4    7    1        -0.5434767608E-01      0.1331221365E+00
          0                17           2             4    7     1      -0.8792986753E-03       4    7    1        -0.4590520558E-01      0.1124426939E+00
          0                18           2             4    7     1      -0.7431209797E-03       4    7    1        -0.3879582898E-01      0.9502860326E-01
          0                19           2             4    7     1      -0.6283381661E-03       4    7    1        -0.3280340687E-01      0.8035044092E-01
          0                20           2             4    7     1      -0.5314915832E-03       4    7    1        -0.2774737470E-01      0.6796592251E-01
                                                   Max.-Head-Change                         Max.-Flux-Residual
  Residual-Control   Outer-Iter.   Inner-Iter.     Column Row Layer    Maximum-Head-Change  Column Row Layer    Maximum-Flux-Residual          L2-NORM 
          0                21           2             4    7     1      -0.4497120590E-03       4    7    1        -0.2347794271E-01      0.5750814493E-01
          0                22           2             4    7     1      -0.3806017568E-03       5    7    1        -0.1987062045E-01      0.4867196747E-01
          0                23           2             4    7     1      -0.3222067894E-03       4    7    1        -0.1682132730E-01      0.4120291524E-01
          0                24           2             4    7     1      -0.2728243510E-03       4    7    1        -0.1424323444E-01      0.3488816630E-01
          0                25           2             4    7     1      -0.2310532034E-03       4    7    1        -0.1206250466E-01      0.2954655157E-01
          0                26           2             4    7     1      -0.1956999606E-03       4    7    1        -0.1021683163E-01      0.2502566180E-01
          0                27           2             4    7     1      -0.1657696586E-03       4    7    1        -0.8654272003E-02      0.2119824338E-01
          0                28           2             4    7     1      -0.1404301639E-03       4    7    1        -0.7331382853E-02      0.1795788699E-01
          0                29           2             4    7     1      -0.1189791964E-03       4    7    1        -0.6211500544E-02      0.1521478658E-01
          0                30           1             4    7     1      -0.1008110976E-03       4    7    1        -0.5263005616E-02      0.1289149168E-01
          0                31           1             4    7     1      -0.8542014400E-04       4    7    1        -0.4459496170E-02      0.1092333211E-01

    ------------------------------------------------
       NWT REQUIRED           31 OUTER ITERATIONS 
       AND A TOTAL OF         60 INNER ITERATIONS.
    ------------------------------------------------

 NO OUTPUT CONTROL FOR STRESS PERIOD    8   TIME STEP   24
 
 SOLVING FOR HEAD 
                                                   Max.-Head-Change                         Max.-Flux-Residual
  Residual-Control   Outer-Iter.   Inner-Iter.     Column Row Layer    Maximum-Head-Change  Column Row Layer    Maximum-Flux-Residual          L2-NORM 
          0                 1           2             4    7     1      -0.1194531715E+00       4    7    1        -0.6293296279E+01      0.1374892288E+02
          0                 2           2             5    8     1      -0.8807391679E-02       5    8    1        -0.4845584486E+00      0.1210076843E+01
          0                 3           2             4    7     1      -0.1201397212E-01       4    7    1        -0.6278137081E+00      0.1494610758E+01
          0                 4           2             4    7     1      -0.8834659727E-02       5    8    1        -0.4641847584E+00      0.1133996077E+01
          0                 5           2             4    7     1      -0.7338589911E-02       4    7    1        -0.3831280964E+00      0.9380156906E+00
          0                 6           2             4    7     1      -0.6047525588E-02       5    6    1        -0.3157407356E+00      0.7733826272E+00
          0                 7           2             4    7     1      -0.5017313936E-02       4    7    1        -0.2619359037E+00      0.6415953830E+00
          0                 8           2             4    7     1      -0.4178032843E-02       4    7    1        -0.2181199825E+00      0.5342752118E+00
          0                 9           2             4    7     1      -0.3490074596E-02       4    7    1        -0.1822041692E+00      0.4463006289E+00
          0                10           2             4    7     1      -0.2922710331E-02       4    7    1        -0.1525841270E+00      0.3737477698E+00
                                                   Max.-Head-Change                         Max.-Flux-Residual
  Residual-Control   Outer-Iter.   Inner-Iter.     Column Row Layer    Maximum-Head-Change  Column Row Layer    Maximum-Flux-Residual          L2-NORM 
          0                11           2             4    7     1      -0.2452580121E-02       4    7    1        -0.1280403266E+00      0.3136288698E+00
          0                12           2             4    7     1      -0.2061488005E-02       4    7    1        -0.1076227936E+00      0.2636178510E+00
          0                13           2             4    7     1      -0.1735158513E-02       4    7    1        -0.9058634071E-01      0.2218869929E+00
          0                14           2             4    7     1      -0.1462142274E-02       4    7    1        -0.7633314785E-01      0.1869745423E+00
          0                15           2             4    7     1      -0.1233262666E-02       4    7    1        -0.6438417246E-01      0.1577060705E+00
          0                16           2             4    7     1      -0.1041016110E-02       4    7    1        -0.5434767607E-01      0.1331221365E+00
          0                17           2             4    7     1      -0.8793027139E-03       4    7    1        -0.4590520556E-01      0.1124426939E+00
          0                18           2             4    7     1      -0.7431243930E-03       4    7    1        -0.3879582898E-01      0.9502860325E-01
          0                19           2             4    7     1      -0.6283410523E-03       4    7    1        -0.3280340687E-01      0.8035044092E-01
          0                20           2             4    7     1      -0.5314940249E-03       4    7    1        -0.2774737470E-01      0.6796592250E-01
                                                   Max.-Head-Change                         Max.-Flux-Residual
  Residual-Control   Outer-Iter.   Inner-Iter.     Column Row Layer    Maximum-Head-Change  Column Row Layer    Maximum-Flux-Residual          L2-NORM 
          0                21           2             4    7     1      -0.4497141241E-03       4    7    1        -0.2347794268E-01      0.5750814493E-01
          0                22           2             4    7     1      -0.3806035050E-03       5    7    1        -0.1987062047E-01      0.4867196749E-01
          0                23           2             4    7     1      -0.3222082696E-03       4    7    1        -0.1682132731E-01      0.4120291522E-01
          0                24           2             4    7     1      -0.2728256040E-03       4    7    1        -0.1424323443E-01      0.3488816629E-01
          0                25           2             4    7     1      -0.2310542646E-03       4    7    1        -0.1206250465E-01      0.2954655157E-01
          0                26           2             4    7     1      -0.1957008596E-03       4    7    1        -0.1021683163E-01      0.2502566176E-01
          0                27           2             4    7     1      -0.1657704201E-03       4    7    1        -0.8654271999E-02      0.2119824335E-01
          0                28           2             4    7     1      -0.1404308087E-03       4    7    1        -0.7331382844E-02      0.1795788696E-01
          0                29           2             4    7     1      -0.1189797430E-03       4    7    1        -0.6211500555E-02      0.1521478657E-01
          0                30           1             4    7     1      -0.1008115604E-03       4    7    1        -0.5263005616E-02      0.1289149167E-01
          0                31           1             4    7     1      -0.8542053643E-04       4    7    1        -0.4459496184E-02      0.1092333216E-01

    ------------------------------------------------
       NWT REQUIRED           31 OUTER ITERATIONS 
       AND A TOTAL OF         60 INNER ITERATIONS.
    ------------------------------------------------

 NO OUTPUT CONTROL FOR STRESS PERIOD    8   TIME STEP   25
 
 SOLVING FOR HEAD 
                                                   Max.-Head-Change                         Max.-Flux-Residual
  Residual-Control   Outer-Iter.   Inner-Iter.     Column Row Layer    Maximum-Head-Change  Column Row Layer    Maximum-Flux-Residual          L2-NORM 
          0                 1           2             4    7     1      -0.1173793924E+00       4    7    1        -0.6184821301E+01      0.1360510837E+02
          0                 2           2             5    8     1      -0.9007777080E-02       5    8    1        -0.4953728042E+00      0.1237360371E+01
          0                 3           2             4    7     1      -0.1199328486E-01       4    7    1        -0.6267297420E+00      0.1491958544E+01
          0                 4           2             4    7     1      -0.8836774554E-02       5    8    1        -0.4642922627E+00      0.1134264024E+01
          0                 5           2             4    7     1      -0.7338416198E-02       4    7    1        -0.3831172708E+00      0.9379889291E+00
          0                 6           2             4    7     1      -0.6047574112E-02       5    6    1        -0.3157418242E+00      0.7733853023E+00
          0                 7           2             4    7     1      -0.5017334910E-02       4    7    1        -0.2619357954E+00      0.6415951154E+00
          0                 8           2             4    7     1      -0.4178052243E-02       4    7    1        -0.2181199932E+00      0.5342752385E+00
          0                 9           2             4    7     1      -0.3490090608E-02       4    7    1        -0.1822041680E+00      0.4463006261E+00
          0                10           2             4    7     1      -0.2922723759E-02       4    7    1        -0.1525841271E+00      0.3737477700E+00
                                                   Max.-Head-Change                         Max.-Flux-Residual
  Residual-Control   Outer-Iter.   Inner-Iter.     Column Row Layer    Maximum-Head-Change  Column Row Layer    Maximum-Flux-Residual          L2-NORM 
          0                11           2             4    7     1      -0.2452591388E-02       4    7    1        -0.1280403266E+00      0.3136288698E+00
          0                12           2             4    7     1      -0.2061497475E-02       4    7    1        -0.1076227936E+00      0.2636178510E+00
          0                13           2             4    7     1      -0.1735166484E-02       4    7    1        -0.9058634068E-01      0.2218869929E+00
          0                14           2             4    7     1      -0.1462148990E-02       4    7    1        -0.7633314783E-01      0.1869745422E+00
          0                15           2             4    7     1      -0.1233268331E-02       4    7    1        -0.6438417246E-01      0.1577060705E+00
          0                16           2             4    7     1      -0.1041020893E-02       4    7    1        -0.5434767607E-01      0.1331221365E+00
          0                17           2             4    7     1      -0.8793067531E-03       4    7    1        -0.4590520554E-01      0.1124426939E+00
          0                18           2             4    7     1      -0.7431278069E-03       4    7    1        -0.3879582897E-01      0.9502860325E-01
          0                19           2             4    7     1      -0.6283439386E-03       4    7    1        -0.3280340685E-01      0.8035044089E-01
          0                20           2             4    7     1      -0.5314964660E-03       4    7    1        -0.2774737470E-01      0.6796592249E-01
                                                   Max.-Head-Change                         Max.-Flux-Residual
  Residual-Control   Outer-Iter.   Inner-Iter.     Column Row Layer    Maximum-Head-Change  Column Row Layer    Maximum-Flux-Residual          L2-NORM 
          0                21           2             4    7     1      -0.4497161906E-03       4    7    1        -0.2347794271E-01      0.5750814491E-01
          0                22           2             4    7     1      -0.3806052531E-03       5    7    1        -0.1987062047E-01      0.4867196745E-01
          0                23           2             4    7     1      -0.3222097499E-03       4    7    1        -0.1682132730E-01      0.4120291523E-01
          0                24           2             4    7     1      -0.2728268572E-03       4    7    1        -0.1424323441E-01      0.3488816626E-01
          0                25           2             4    7     1      -0.2310553258E-03       4    7    1        -0.1206250465E-01      0.2954655155E-01
          0                26           2             4    7     1      -0.1957017588E-03       4    7    1        -0.1021683163E-01      0.2502566176E-01
          0                27           2             4    7     1      -0.1657711817E-03       4    7    1        -0.8654271995E-02      0.2119824337E-01
          0                28           2             4    7     1      -0.1404314538E-03       4    7    1        -0.7331382837E-02      0.1795788695E-01
          0                29           2             4    7     1      -0.1189802895E-03       4    7    1        -0.6211500544E-02      0.1521478655E-01
          0                30           1             4    7     1      -0.1008120234E-03       4    7    1        -0.5263005609E-02      0.1289149168E-01
          0                31           1             4    7     1      -0.8542092873E-04       4    7    1        -0.4459496185E-02      0.1092333211E-01

    ------------------------------------------------
       NWT REQUIRED           31 OUTER ITERATIONS 
       AND A TOTAL OF         60 INNER ITERATIONS.
    ------------------------------------------------

 NO OUTPUT CONTROL FOR STRESS PERIOD    8   TIME STEP   26
 
 SOLVING FOR HEAD 
                                                   Max.-Head-Change                         Max.-Flux-Residual
  Residual-Control   Outer-Iter.   Inner-Iter.     Column Row Layer    Maximum-Head-Change  Column Row Layer    Maximum-Flux-Residual          L2-NORM 
          0                 1           2             4    7     1      -0.1153212091E+00       4    7    1        -0.6077089172E+01      0.1346746411E+02
          0                 2           2             5    8     1      -0.9200842953E-02       5    8    1        -0.5057843182E+00      0.1263817629E+01
          0                 3           2             4    7     1      -0.1197275354E-01       4    7    1        -0.6256531831E+00      0.1489372414E+01
          0                 4           2             4    7     1      -0.8838873756E-02       5    8    1        -0.4643957822E+00      0.1134525251E+01
          0                 5           2             4    7     1      -0.7338244024E-02       4    7    1        -0.3831065190E+00      0.9379628373E+00
          0                 6           2             4    7     1      -0.6047622461E-02       5    6    1        -0.3157428739E+00      0.7733879105E+00
          0                 7           2             4    7     1      -0.5017355884E-02       4    7    1        -0.2619356879E+00      0.6415948547E+00
          0                 8           2             4    7     1      -0.4178071630E-02       4    7    1        -0.2181200039E+00      0.5342752646E+00
          0                 9           2             4    7     1      -0.3490106609E-02       4    7    1        -0.1822041669E+00      0.4463006236E+00
          0                10           2             4    7     1      -0.2922737179E-02       4    7    1        -0.1525841272E+00      0.3737477703E+00
                                                   Max.-Head-Change                         Max.-Flux-Residual
  Residual-Control   Outer-Iter.   Inner-Iter.     Column Row Layer    Maximum-Head-Change  Column Row Layer    Maximum-Flux-Residual          L2-NORM 
          0                11           2             4    7     1      -0.2452602647E-02       4    7    1        -0.1280403265E+00      0.3136288698E+00
          0                12           2             4    7     1      -0.2061506939E-02       4    7    1        -0.1076227936E+00      0.2636178510E+00
          0                13           2             4    7     1      -0.1735174449E-02       4    7    1        -0.9058634066E-01      0.2218869929E+00
          0                14           2             4    7     1      -0.1462155703E-02       4    7    1        -0.7633314781E-01      0.1869745423E+00
          0                15           2             4    7     1      -0.1233273993E-02       4    7    1        -0.6438417243E-01      0.1577060706E+00
          0                16           2             4    7     1      -0.1041025672E-02       4    7    1        -0.5434767605E-01      0.1331221365E+00
          0                17           2             4    7     1      -0.8793107897E-03       4    7    1        -0.4590520553E-01      0.1124426939E+00
          0                18           2             4    7     1      -0.7431312183E-03       4    7    1        -0.3879582896E-01      0.9502860326E-01
          0                19           2             4    7     1      -0.6283468236E-03       4    7    1        -0.3280340686E-01      0.8035044092E-01
          0                20           2             4    7     1      -0.5314989062E-03       4    7    1        -0.2774737468E-01      0.6796592250E-01
                                                   Max.-Head-Change                         Max.-Flux-Residual
  Residual-Control   Outer-Iter.   Inner-Iter.     Column Row Layer    Maximum-Head-Change  Column Row Layer    Maximum-Flux-Residual          L2-NORM 
          0                21           2             4    7     1      -0.4497182548E-03       4    7    1        -0.2347794268E-01      0.5750814493E-01
          0                22           2             4    7     1      -0.3806070000E-03       5    7    1        -0.1987062049E-01      0.4867196746E-01
          0                23           2             4    7     1      -0.3222112292E-03       4    7    1        -0.1682132731E-01      0.4120291523E-01
          0                24           2             4    7     1      -0.2728281099E-03       4    7    1        -0.1424323442E-01      0.3488816629E-01
          0                25           2             4    7     1      -0.2310563868E-03       4    7    1        -0.1206250465E-01      0.2954655155E-01
          0                26           2             4    7     1      -0.1957026568E-03       4    7    1        -0.1021683162E-01      0.2502566176E-01
          0                27           2             4    7     1      -0.1657719428E-03       4    7    1        -0.8654272007E-02      0.2119824337E-01
          0                28           2             4    7     1      -0.1404320986E-03       4    7    1        -0.7331382844E-02      0.1795788699E-01
          0                29           2             4    7     1      -0.1189808359E-03       4    7    1        -0.6211500544E-02      0.1521478659E-01
          0                30           1             4    7     1      -0.1008124861E-03       4    7    1        -0.5263005611E-02      0.1289149171E-01
          0                31           1             4    7     1      -0.8542132115E-04       4    7    1        -0.4459496193E-02      0.1092333216E-01

    ------------------------------------------------
       NWT REQUIRED           31 OUTER ITERATIONS 
       AND A TOTAL OF         60 INNER ITERATIONS.
    ------------------------------------------------

 NO OUTPUT CONTROL FOR STRESS PERIOD    8   TIME STEP   27
 
 SOLVING FOR HEAD 
                                                   Max.-Head-Change                         Max.-Flux-Residual
  Residual-Control   Outer-Iter.   Inner-Iter.     Column Row Layer    Maximum-Head-Change  Column Row Layer    Maximum-Flux-Residual          L2-NORM 
          0                 1           2             4    7     1      -0.1132795013E+00       4    7    1        -0.5970151390E+01      0.1333565648E+02
          0                 2           2             5    8     1      -0.9386979017E-02       5    8    1        -0.5158147024E+00      0.1289483568E+01
          0                 3           2             4    7     1      -0.1195238694E-01       4    7    1        -0.6245845470E+00      0.1486849903E+01
          0                 4           2             4    7     1      -0.8840956434E-02       5    8    1        -0.4644955312E+00      0.1134780006E+01
          0                 5           2             4    7     1      -0.7338073459E-02       4    7    1        -0.3830958459E+00      0.9379373905E+00
          0                 6           2             4    7     1      -0.6047670614E-02       5    6    1        -0.3157438866E+00      0.7733904544E+00
          0                 7           2             4    7     1      -0.5017376849E-02       4    7    1        -0.2619355811E+00      0.6415946005E+00
          0                 8           2             4    7     1      -0.4178090992E-02       4    7    1        -0.2181200146E+00      0.5342752902E+00
          0                 9           2             4    7     1      -0.3490122593E-02       4    7    1        -0.1822041658E+00      0.4463006211E+00
          0                10           2             4    7     1      -0.2922750583E-02       4    7    1        -0.1525841272E+00      0.3737477706E+00
                                                   Max.-Head-Change                         Max.-Flux-Residual
  Residual-Control   Outer-Iter.   Inner-Iter.     Column Row Layer    Maximum-Head-Change  Column Row Layer    Maximum-Flux-Residual          L2-NORM 
          0                11           2             4    7     1      -0.2452613893E-02       4    7    1        -0.1280403265E+00      0.3136288698E+00
          0                12           2             4    7     1      -0.2061516392E-02       4    7    1        -0.1076227936E+00      0.2636178510E+00
          0                13           2             4    7     1      -0.1735182406E-02       4    7    1        -0.9058634064E-01      0.2218869930E+00
          0                14           2             4    7     1      -0.1462162408E-02       4    7    1        -0.7633314780E-01      0.1869745423E+00
          0                15           2             4    7     1      -0.1233279648E-02       4    7    1        -0.6438417241E-01      0.1577060706E+00
          0                16           2             4    7     1      -0.1041030445E-02       4    7    1        -0.5434767603E-01      0.1331221365E+00
          0                17           2             4    7     1      -0.8793148218E-03       4    7    1        -0.4590520552E-01      0.1124426939E+00
          0                18           2             4    7     1      -0.7431346259E-03       4    7    1        -0.3879582895E-01      0.9502860325E-01
          0                19           2             4    7     1      -0.6283497048E-03       4    7    1        -0.3280340684E-01      0.8035044094E-01
          0                20           2             4    7     1      -0.5315013431E-03       4    7    1        -0.2774737468E-01      0.6796592252E-01
                                                   Max.-Head-Change                         Max.-Flux-Residual
  Residual-Control   Outer-Iter.   Inner-Iter.     Column Row Layer    Maximum-Head-Change  Column Row Layer    Maximum-Flux-Residual          L2-NORM 
          0                21           2             4    7     1      -0.4497203172E-03       4    7    1        -0.2347794269E-01      0.5750814493E-01
          0                22           2             4    7     1      -0.3806087454E-03       5    7    1        -0.1987062050E-01      0.4867196748E-01
          0                23           2             4    7     1      -0.3222127065E-03       4    7    1        -0.1682132729E-01      0.4120291523E-01
          0                24           2             4    7     1      -0.2728293607E-03       4    7    1        -0.1424323442E-01      0.3488816628E-01
          0                25           2             4    7     1      -0.2310574461E-03       4    7    1        -0.1206250465E-01      0.2954655158E-01
          0                26           2             4    7     1      -0.1957035546E-03       4    7    1        -0.1021683164E-01      0.2502566177E-01
          0                27           2             4    7     1      -0.1657727029E-03       4    7    1        -0.8654272001E-02      0.2119824336E-01
          0                28           2             4    7     1      -0.1404327427E-03       4    7    1        -0.7331382844E-02      0.1795788697E-01
          0                29           2             4    7     1      -0.1189813810E-03       4    7    1        -0.6211500536E-02      0.1521478657E-01
          0                30           1             4    7     1      -0.1008129489E-03       4    7    1        -0.5263005630E-02      0.1289149165E-01
          0                31           1             4    7     1      -0.8542171245E-04       4    7    1        -0.4459496173E-02      0.1092333209E-01

    ------------------------------------------------
       NWT REQUIRED           31 OUTER ITERATIONS 
       AND A TOTAL OF         60 INNER ITERATIONS.
    ------------------------------------------------

 NO OUTPUT CONTROL FOR STRESS PERIOD    8   TIME STEP   28
 
 SOLVING FOR HEAD 
                                                   Max.-Head-Change                         Max.-Flux-Residual
  Residual-Control   Outer-Iter.   Inner-Iter.     Column Row Layer    Maximum-Head-Change  Column Row Layer    Maximum-Flux-Residual          L2-NORM 
          0                 1           2             4    7     1      -0.1112555763E+00       4    7    1        -0.5864082668E+01      0.1320942137E+02
          0                 2           2             5    8     1      -0.9566576471E-02       5    8    1        -0.5254857286E+00      0.1314395226E+01
          0                 3           2             4    7     1      -0.1193219809E-01       4    7    1        -0.6235245810E+00      0.1484388747E+01
          0                 4           2             4    7     1      -0.8843021250E-02       5    8    1        -0.4645917248E+00      0.1135028520E+01
          0                 5           2             4    7     1      -0.7337904608E-02       4    7    1        -0.3830852591E+00      0.9379125658E+00
          0                 6           2             4    7     1      -0.6047718536E-02       5    6    1        -0.3157448644E+00      0.7733929363E+00
          0                 7           2             4    7     1      -0.5017397788E-02       4    7    1        -0.2619354752E+00      0.6415943526E+00
          0                 8           2             4    7     1      -0.4178110317E-02       4    7    1        -0.2181200251E+00      0.5342753152E+00
          0                 9           2             4    7     1      -0.3490138546E-02       4    7    1        -0.1822041647E+00      0.4463006188E+00
          0                10           2             4    7     1      -0.2922763962E-02       4    7    1        -0.1525841273E+00      0.3737477710E+00
                                                   Max.-Head-Change                         Max.-Flux-Residual
  Residual-Control   Outer-Iter.   Inner-Iter.     Column Row Layer    Maximum-Head-Change  Column Row Layer    Maximum-Flux-Residual          L2-NORM 
          0                11           2             4    7     1      -0.2452625118E-02       4    7    1        -0.1280403264E+00      0.3136288699E+00
          0                12           2             4    7     1      -0.2061525827E-02       4    7    1        -0.1076227936E+00      0.2636178511E+00
          0                13           2             4    7     1      -0.1735190348E-02       4    7    1        -0.9058634063E-01      0.2218869930E+00
          0                14           2             4    7     1      -0.1462169100E-02       4    7    1        -0.7633314779E-01      0.1869745424E+00
          0                15           2             4    7     1      -0.1233285292E-02       4    7    1        -0.6438417240E-01      0.1577060706E+00
          0                16           2             4    7     1      -0.1041035210E-02       4    7    1        -0.5434767604E-01      0.1331221366E+00
          0                17           2             4    7     1      -0.8793188464E-03       4    7    1        -0.4590520552E-01      0.1124426940E+00
          0                18           2             4    7     1      -0.7431380270E-03       4    7    1        -0.3879582894E-01      0.9502860331E-01
          0                19           2             4    7     1      -0.6283525804E-03       4    7    1        -0.3280340684E-01      0.8035044094E-01
          0                20           2             4    7     1      -0.5315037760E-03       4    7    1        -0.2774737468E-01      0.6796592255E-01
                                                   Max.-Head-Change                         Max.-Flux-Residual
  Residual-Control   Outer-Iter.   Inner-Iter.     Column Row Layer    Maximum-Head-Change  Column Row Layer    Maximum-Flux-Residual          L2-NORM 
          0                21           2             4    7     1      -0.4497223754E-03       4    7    1        -0.2347794268E-01      0.5750814494E-01
          0                22           2             4    7     1      -0.3806104873E-03       5    7    1        -0.1987062051E-01      0.4867196749E-01
          0                23           2             4    7     1      -0.3222141813E-03       4    7    1        -0.1682132728E-01      0.4120291525E-01
          0                24           2             4    7     1      -0.2728306090E-03       4    7    1        -0.1424323440E-01      0.3488816628E-01
          0                25           2             4    7     1      -0.2310585040E-03       4    7    1        -0.1206250466E-01      0.2954655158E-01
          0                26           2             4    7     1      -0.1957044502E-03       4    7    1        -0.1021683163E-01      0.2502566179E-01
          0                27           2             4    7     1      -0.1657734616E-03       4    7    1        -0.8654271993E-02      0.2119824337E-01
          0                28           2             4    7     1      -0.1404333852E-03       4    7    1        -0.7331382835E-02      0.1795788698E-01
          0                29           2             4    7     1      -0.1189819258E-03       4    7    1        -0.6211500538E-02      0.1521478658E-01
          0                30           1             4    7     1      -0.1008134101E-03       4    7    1        -0.5263005619E-02      0.1289149165E-01
          0                31           1             4    7     1      -0.8542210337E-04       4    7    1        -0.4459496176E-02      0.1092333212E-01

    ------------------------------------------------
       NWT REQUIRED           31 OUTER ITERATIONS 
       AND A TOTAL OF         60 INNER ITERATIONS.
    ------------------------------------------------

 NO OUTPUT CONTROL FOR STRESS PERIOD    8   TIME STEP   29
 
 SOLVING FOR HEAD 
                                                   Max.-Head-Change                         Max.-Flux-Residual
  Residual-Control   Outer-Iter.   Inner-Iter.     Column Row Layer    Maximum-Head-Change  Column Row Layer    Maximum-Flux-Residual          L2-NORM 
          0                 1           2             4    7     1      -0.1092504764E+00       4    7    1        -0.5758943490E+01      0.1308847657E+02
          0                 2           2             5    8     1      -0.9739986089E-02       5    8    1        -0.5348168995E+00      0.1338585917E+01
          0                 3           2             4    7     1      -0.1191219737E-01       4    7    1        -0.6224738894E+00      0.1481986744E+01
          0                 4           2             4    7     1      -0.8845067137E-02       5    8    1        -0.4646845559E+00      0.1135271018E+01
          0                 5           2             4    7     1      -0.7337737558E-02       4    7    1        -0.3830747647E+00      0.9378883408E+00
          0                 6           2             4    7     1      -0.6047766201E-02       5    6    1        -0.3157458090E+00      0.7733953583E+00
          0                 7           2             4    7     1      -0.5017418689E-02       4    7    1        -0.2619353703E+00      0.6415941108E+00
          0                 8           2             4    7     1      -0.4178129592E-02       4    7    1        -0.2181200356E+00      0.5342753396E+00
          0                 9           2             4    7     1      -0.3490154460E-02       4    7    1        -0.1822041637E+00      0.4463006166E+00
          0                10           2             4    7     1      -0.2922777308E-02       4    7    1        -0.1525841274E+00      0.3737477714E+00
                                                   Max.-Head-Change                         Max.-Flux-Residual
  Residual-Control   Outer-Iter.   Inner-Iter.     Column Row Layer    Maximum-Head-Change  Column Row Layer    Maximum-Flux-Residual          L2-NORM 
          0                11           2             4    7     1      -0.2452636315E-02       4    7    1        -0.1280403264E+00      0.3136288700E+00
          0                12           2             4    7     1      -0.2061535239E-02       4    7    1        -0.1076227935E+00      0.2636178513E+00
          0                13           2             4    7     1      -0.1735198269E-02       4    7    1        -0.9058634061E-01      0.2218869931E+00
          0                14           2             4    7     1      -0.1462175775E-02       4    7    1        -0.7633314778E-01      0.1869745424E+00
          0                15           2             4    7     1      -0.1233290923E-02       4    7    1        -0.6438417240E-01      0.1577060707E+00
          0                16           2             4    7     1      -0.1041039963E-02       4    7    1        -0.5434767603E-01      0.1331221366E+00
          0                17           2             4    7     1      -0.8793228608E-03       4    7    1        -0.4590520552E-01      0.1124426940E+00
          0                18           2             4    7     1      -0.7431414200E-03       4    7    1        -0.3879582895E-01      0.9502860336E-01
          0                19           2             4    7     1      -0.6283554492E-03       4    7    1        -0.3280340683E-01      0.8035044099E-01
          0                20           2             4    7     1      -0.5315062023E-03       4    7    1        -0.2774737467E-01      0.6796592257E-01
                                                   Max.-Head-Change                         Max.-Flux-Residual
  Residual-Control   Outer-Iter.   Inner-Iter.     Column Row Layer    Maximum-Head-Change  Column Row Layer    Maximum-Flux-Residual          L2-NORM 
          0                21           2             4    7     1      -0.4497244288E-03       4    7    1        -0.2347794269E-01      0.5750814499E-01
          0                22           2             4    7     1      -0.3806122244E-03       5    7    1        -0.1987062052E-01      0.4867196751E-01
          0                23           2             4    7     1      -0.3222156527E-03       4    7    1        -0.1682132730E-01      0.4120291529E-01
          0                24           2             4    7     1      -0.2728318549E-03       4    7    1        -0.1424323440E-01      0.3488816632E-01
          0                25           2             4    7     1      -0.2310595583E-03       4    7    1        -0.1206250464E-01      0.2954655161E-01
          0                26           2             4    7     1      -0.1957053437E-03       4    7    1        -0.1021683163E-01      0.2502566182E-01
          0                27           2             4    7     1      -0.1657742180E-03       4    7    1        -0.8654271992E-02      0.2119824340E-01
          0                28           2             4    7     1      -0.1404340267E-03       4    7    1        -0.7331382854E-02      0.1795788703E-01
          0                29           2             4    7     1      -0.1189824691E-03       4    7    1        -0.6211500534E-02      0.1521478661E-01
          0                30           1             4    7     1      -0.1008138701E-03       4    7    1        -0.5263005607E-02      0.1289149170E-01
          0                31           1             4    7     1      -0.8542249367E-04       4    7    1        -0.4459496181E-02      0.1092333217E-01

    ------------------------------------------------
       NWT REQUIRED           31 OUTER ITERATIONS 
       AND A TOTAL OF         60 INNER ITERATIONS.
    ------------------------------------------------

 NO OUTPUT CONTROL FOR STRESS PERIOD    8   TIME STEP   30



 STREAM LISTING     PERIOD      8   STEP       30

 LAYER ROW COL. STREAM  RCH.  FLOW INTO     FLOW TO   FLOW OUT OF   OVRLND.     DIRECT     STREAM       STREAM     STREAM     STREAM   STREAMBED  STREAMBED
                SEG.NO.  NO.  STRM. RCH.    AQUIFER    STRM. RCH.    RUNOFF     PRECIP       ET          HEAD       DEPTH      WIDTH   CONDCTNC.   GRADIENT

   1    1    1     1     1    7.4999E+01  4.2231E-01   7.4577E+01  0.000E+00  0.000E+00  0.000E+00  1.09475E+03  1.698E+00  1.998E+01  8.990E-02  1.566E+00
   1    2    2     1     2    7.4577E+01  6.5422E-01   7.3923E+01  0.000E+00  0.000E+00  0.000E+00  1.08975E+03  1.692E+00  1.992E+01  1.394E-01  1.564E+00
   1    3    3     1     3    7.3923E+01  5.5813E-01   7.3365E+01  0.000E+00  0.000E+00  0.000E+00  1.08410E+03  1.685E+00  1.985E+01  1.191E-01  1.562E+00
   1    3    4     1     4    7.3365E+01  5.1411E-01   7.2851E+01  0.000E+00  0.000E+00  0.000E+00  1.07909E+03  1.679E+00  1.980E+01  1.099E-01  1.560E+00
   1    4    5     2     1    7.0851E+01  4.0967E-01   7.0441E+01  0.000E+00  0.000E+00  0.000E+00  1.07419E+03  2.252E+00  1.200E+01  7.800E-02  1.751E+00
   1    5    6     2     2    7.0441E+01  3.1471E-01   7.0126E+01  0.000E+00  0.000E+00  0.000E+00  1.06875E+03  2.245E+00  1.200E+01  6.000E-02  1.748E+00
   1    6    6     2     3    7.0126E+01  3.1435E-01   6.9812E+01  0.000E+00  0.000E+00  0.000E+00  1.06403E+03  2.239E+00  1.200E+01  6.000E-02  1.746E+00
   1    7    6     2     4    6.9812E+01  3.1399E-01   6.9498E+01  0.000E+00  0.000E+00  0.000E+00  1.05931E+03  2.233E+00  1.200E+01  6.000E-02  1.744E+00
   1    8    6     2     5    6.9498E+01  3.1363E-01   6.9184E+01  0.000E+00  0.000E+00  0.000E+00  1.05459E+03  2.227E+00  1.200E+01  6.000E-02  1.742E+00
   1    3    5     3     1    2.0000E+00  2.8252E-01   1.7175E+00  0.000E+00  0.000E+00  0.000E+00  1.07555E+03  1.909E+00  9.636E+00  7.227E-02  1.955E+00
   1    3    6     3     2    1.7175E+00  2.4905E-01   1.4684E+00  0.000E+00  0.000E+00  0.000E+00  1.07264E+03  1.727E+00  8.909E+00  6.682E-02  1.864E+00
   1    3    7     3     3    1.4684E+00  1.9718E-01   1.2712E+00  0.000E+00  0.000E+00  0.000E+00  1.06987E+03  1.555E+00  8.218E+00  5.547E-02  1.777E+00
   1    4    8     3     4    1.2712E+00  2.2567E-01   1.0456E+00  0.000E+00  0.000E+00  0.000E+00  1.06682E+03  1.364E+00  7.455E+00  6.709E-02  1.682E+00
   1    5    8     3     5    1.0456E+00  1.5790E-01   8.8768E-01  0.000E+00  0.000E+00  0.000E+00  1.06362E+03  1.164E+00  6.655E+00  4.991E-02  1.582E+00
   1    6    8     3     6    8.8768E-01  5.5980E-02   8.3170E-01  0.000E+00  0.000E+00  0.000E+00  1.06158E+03  1.036E+00  6.145E+00  1.844E-02  1.518E+00
   1    5   10     4     1    1.0000E+01  9.0919E-02   9.9091E+00  0.000E+00  0.000E+00  0.000E+00  1.07836E+03  6.368E-01  1.000E+01  2.500E-02  1.212E+00
   1    5    9     4     2    9.9091E+00  1.8158E-01   9.7275E+00  0.000E+00  0.000E+00  0.000E+00  1.07154E+03  6.315E-01  1.000E+01  5.000E-02  1.211E+00
   1    6    8     4     3    9.7275E+00  1.2689E-01   9.6006E+00  0.000E+00  0.000E+00  0.000E+00  1.06381E+03  6.256E-01  1.000E+01  3.500E-02  1.209E+00
   1    6    8     5     1    1.0432E+01  2.2686E-01   1.0205E+01  0.000E+00  0.000E+00  0.000E+00  1.05868E+03  6.790E-01  1.542E+01  6.166E-02  1.226E+00
   1    7    7     5     2    1.0205E+01  2.7894E-01   9.9265E+00  0.000E+00  0.000E+00  0.000E+00  1.05417E+03  6.732E-01  1.519E+01  7.594E-02  1.224E+00
   1    8    7     5     3    9.9265E+00  1.9221E-01   9.7343E+00  0.000E+00  0.000E+00  0.000E+00  1.04992E+03  6.676E-01  1.497E+01  5.241E-02  1.223E+00
   1    8    6     5     4    9.7343E+00  1.3577E-01   9.5985E+00  0.000E+00  0.000E+00  0.000E+00  1.04691E+03  6.637E-01  1.482E+01  3.706E-02  1.221E+00
   1    9    6     6     1    7.8783E+01  3.2569E-01   7.8457E+01  0.000E+00  0.000E+00  0.000E+00  1.04516E+03  2.428E+00  1.200E+01  6.000E-02  1.809E+00
   1   10    7     6     2    7.8457E+01  3.2533E-01   7.8132E+01  0.000E+00  0.000E+00  0.000E+00  1.04060E+03  2.422E+00  1.200E+01  6.000E-02  1.807E+00
   1   11    7     6     3    7.8132E+01  3.2497E-01   7.7807E+01  0.000E+00  0.000E+00  0.000E+00  1.03605E+03  2.416E+00  1.200E+01  6.000E-02  1.805E+00
   1   12    7     6     4    7.7807E+01  3.2461E-01   7.7482E+01  0.000E+00  0.000E+00  0.000E+00  1.03150E+03  2.410E+00  1.200E+01  6.000E-02  1.803E+00
   1   13    7     6     5    7.7482E+01  2.5716E-02   7.7457E+01  0.000E+00  0.000E+00  0.000E+00  1.02832E+03  2.407E+00  1.200E+01  2.400E-02  3.572E-01
   1   14    9     7     1    1.5000E+02  1.3316E+00   1.4867E+02  0.000E+00  0.000E+00  0.000E+00  1.03987E+03  2.288E+00  5.529E+01  5.593E-01  7.936E-01
   1   13    8     7     2    1.4867E+02  1.7983E+00   1.4687E+02  0.000E+00  0.000E+00  0.000E+00  1.03478E+03  2.279E+00  5.526E+01  6.148E-01  9.750E-01
   1   13    7     7     3    1.4687E+02  1.3660E+00   1.4550E+02  0.000E+00  0.000E+00  0.000E+00  1.02969E+03  2.271E+00  5.522E+01  5.585E-01  8.153E-01
   1   13    6     8     1    2.2296E+02  1.0156E+00   2.2195E+02  0.000E+00  0.000E+00  0.000E+00  1.02514E+03  3.265E+00  4.735E+01  4.825E-01  7.016E-01
   1   13    5     8     2    2.2195E+02  2.0141E-01   2.2174E+02  0.000E+00  0.000E+00  0.000E+00  1.01889E+03  3.262E+00  4.730E+01  4.820E-01  1.393E-01
   1   13    4     8     3    2.2174E+02 -1.9153E+00   2.2366E+02  0.000E+00  0.000E+00  0.000E+00  1.01264E+03  3.267E+00  4.737E+01  4.827E+00 -1.323E-01
   1   13    3     8     4    2.2366E+02 -3.0681E+00   2.2673E+02  0.000E+00  0.000E+00  0.000E+00  1.00641E+03  3.280E+00  4.757E+01  4.847E+00 -2.110E-01
   1   13    2     8     5    2.2673E+02 -2.5091E+00   2.2924E+02  0.000E+00  0.000E+00  0.000E+00  1.00017E+03  3.296E+00  4.779E+01  4.870E+00 -1.717E-01
   1   13    1     8     6    2.2924E+02 -1.9837E+00   2.3122E+02  0.000E+00  0.000E+00  0.000E+00  9.95183E+02  3.308E+00  4.796E+01  2.933E+00 -2.255E-01





UNSATURATED ZONE PACKAGE VOLUMETRIC BUDGET FOR  TIME STEP    30 STRESS PERIOD    8
  ------------------------------------------------------------------------------



     CUMULATIVE VOLUMES      L**3       RATES FOR THIS TIME STEP      L**3/T
     ------------------                 ------------------------

           IN:                                      IN:
           ---                                      ---
        INFILTRATION =   395477520.2004          INFILTRATION =          91.4654

          OUT:                                     OUT:
          ----                                     ----
              UZF ET =   305994167.4656                UZF ET =          64.0822
        UZF RECHARGE =      388459.6891          UZF RECHARGE =       0.0000E+00

            IN - OUT =    89094893.0458              IN - OUT =          27.3832

          STORAGE:                                 STORAGE:
          --------                                 --------
      STORAGE CHANGE =    89095460.6930        STORAGE CHANGE =          27.3832

 PERCENT DISCREPANCY IS DIFFERENCE BETWEEN IN-OUT MINUS CHANGE IN STORAGE
 DIVIDED BY THE AVERAGE OF IN AND OUT TIMES 100

 PERCENT DISCREPANCY =          -0.00     PERCENT DISCREPANCY =           0.00






1
  VOLUMETRIC BUDGET FOR AGRICULTURAL FIELDS AT TIME STEP   30, STRESS PERIOD   8
  ------------------------------------------------------------------------------

     CUMULATIVE VOLUMES      L**3       RATES FOR THIS TIME STEP      L**3/T
     ------------------                 ------------------------

           IN:                                      IN:
           ---                                      ---
               AG WELLS  =   314262272.0000                 AG WELLS  =          87.0579
      DIVERSION SEGMENTS =           0.0000        DIVERSION SEGMENTS =           0.0000
           GW IRRIGATION =           0.0000             GW IRRIGATION =           0.0000
           SW IRRIGATION =           0.0000             SW IRRIGATION =           0.0000
        SYSTEM LOSSES GW =           0.0000          SYSTEM LOSSES GW =           0.0000
        SYSTEM LOSSES SW =           0.0000          SYSTEM LOSSES SW =           0.0000

                TOTAL IN =   314262272.0000                  TOTAL IN =          87.0579

          OUT:                                     OUT:
          ----                                     ----
               AG WELLS  =           0.0000                 AG WELLS  =           0.0000
      DIVERSION SEGMENTS =           0.0000        DIVERSION SEGMENTS =           0.0000
           GW IRRIGATION =   314262272.0000             GW IRRIGATION =          87.0579
           SW IRRIGATION =           0.0000             SW IRRIGATION =           0.0000
        SYSTEM LOSSES GW =           0.0000          SYSTEM LOSSES GW =           0.0000
        SYSTEM LOSSES SW =           0.0000          SYSTEM LOSSES SW =           0.0000

               TOTAL OUT =   314262272.0000                 TOTAL OUT =          87.0579

                IN - OUT =           0.0000                  IN - OUT =           0.0000

     PERCENT DISCREPANCY =           0.00         PERCENT DISCREPANCY =           0.00



1
  VOLUMETRIC BUDGET FOR ENTIRE MODEL AT END OF TIME STEP   30, STRESS PERIOD   8
  ------------------------------------------------------------------------------

     CUMULATIVE VOLUMES      L**3       RATES FOR THIS TIME STEP      L**3/T
     ------------------                 ------------------------

           IN:                                      IN:
           ---                                      ---
             STORAGE     =   318819872.0000               STORAGE     =          85.9892
       CONSTANT HEAD     =           0.0000         CONSTANT HEAD     =           0.0000
     HEAD DEP BOUNDS     =     5279910.5000       HEAD DEP BOUNDS     =           0.2855
      STREAM LEAKAGE     =   237070816.0000        STREAM LEAKAGE     =          13.2557
        UZF RECHARGE     =      388459.5938          UZF RECHARGE     =           0.0000
               GW ET     =           0.0000                 GW ET     =           0.0000
     SURFACE LEAKAGE     =           0.0000       SURFACE LEAKAGE     =           0.0000
           AG WELLS      =           0.0000             AG WELLS      =           0.0000

                TOTAL IN =   561559040.0000                  TOTAL IN =          99.5304

          OUT:                                     OUT:
          ----                                     ----
             STORAGE     =    45682164.0000               STORAGE     =           1.1628
       CONSTANT HEAD     =           0.0000         CONSTANT HEAD     =           0.0000
     HEAD DEP BOUNDS     =     5460669.5000       HEAD DEP BOUNDS     =           0.2987
      STREAM LEAKAGE     =   185956432.0000        STREAM LEAKAGE     =           9.4762
        UZF RECHARGE     =           0.0000          UZF RECHARGE     =           0.0000
               GW ET     =    10195355.0000                 GW ET     =           1.5322
     SURFACE LEAKAGE     =           0.0000       SURFACE LEAKAGE     =           0.0000
           AG WELLS      =   314262272.0000             AG WELLS      =          87.0579

               TOTAL OUT =   561556864.0000                 TOTAL OUT =          99.5277

                IN - OUT =        2176.0000                  IN - OUT =       2.6474E-03

     PERCENT DISCREPANCY =           0.00         PERCENT DISCREPANCY =           0.00






         TIME SUMMARY AT END OF TIME STEP   30 IN STRESS PERIOD    8
                    SECONDS     MINUTES      HOURS       DAYS        YEARS
                    -----------------------------------------------------------
   TIME STEP LENGTH  87667.      1461.1      24.352      1.0147     2.77799E-03
 STRESS PERIOD TIME 2.63000E+06  43833.      730.56      30.440     8.33397E-02
         TOTAL TIME 1.84964E+07 3.08274E+05  5137.9      214.08     0.58612    
1
1
                            STRESS PERIOD NO.    9, LENGTH =   2630000.    
                            -----------------------------------------------

                              NUMBER OF TIME STEPS =    30

                               MULTIPLIER FOR DELT =     1.000

                            INITIAL TIME STEP SIZE =   87666.66    

 REUSING NON-PARAMETER GHB CELLS FROM LAST STRESS PERIOD

      2 GHB CELLS

 REUSING STREAM SEGMENT DATA FROM LAST STRESS PERIOD



            AREAL INFILTRATION RATE
 READING ON UNIT   19 WITH FORMAT: (10F4.0)            

            1           2           3           4           5           6           7           8           9          10
 ........................................................................................................................
   1   1.2000E-09   0.000       0.000       0.000       0.000       0.000       0.000       0.000       0.000       0.000    
   2   2.1000E-09  2.0000E-09  8.0000E-10  8.5000E-09   0.000       0.000       0.000       0.000       0.000       0.000    
   3   5.0000E-10  1.1000E-09  8.8000E-09  5.5000E-09   0.000       0.000       0.000       0.000       0.000       0.000    
   4   8.5000E-09  1.1000E-09  1.1000E-09  1.1000E-09  2.0000E-09   0.000       0.000       0.000       0.000       0.000    
   5   8.5000E-09  1.1000E-09  1.1000E-09  1.1000E-09  1.1000E-09   0.000       0.000       0.000       0.000       0.000    
   6   8.5000E-09  5.2000E-09  2.1000E-09  1.1000E-09  1.5000E-09   0.000       0.000       0.000       0.000       0.000    
   7   8.5000E-09  5.2000E-09  2.1000E-09  1.2000E-09  2.0000E-09   0.000       0.000       0.000       0.000       0.000    
   8   5.0000E-10  5.2000E-09  2.1000E-09  1.2000E-09  5.0000E-09   0.000       0.000       0.000       0.000       0.000    
   9   5.0000E-10  5.2000E-09  2.1000E-09  1.2000E-09  5.0000E-09   0.000       0.000       0.000       0.000       0.000    
  10   5.0000E-10  5.2000E-09  2.1000E-09  1.2000E-09  5.8000E-09   0.000       0.000       0.000       0.000       0.000    
  11   1.0000E-10  1.1000E-09  1.1000E-09  1.2000E-09  5.0000E-09   0.000       0.000       0.000       0.000       0.000    
  12   1.1000E-09  1.1000E-09  1.1000E-09  1.1000E-09  2.0000E-09   0.000       0.000       0.000       0.000       0.000    
  13   1.1000E-09  2.2000E-09  2.2000E-09  2.1000E-09  1.0000E-09   0.000       0.000       0.000       0.000       0.000    
  14   2.0000E-10  5.5000E-09  5.5000E-09  5.2000E-09  1.0000E-09   0.000       0.000       0.000       0.000       0.000    
  15    0.000      8.8000E-09  8.8000E-09   0.000       0.000       0.000       0.000       0.000       0.000       0.000    

                  ET RATE =  3.250000E-07

 USING ET EXTINCTION DEPTH FROM PREVIOUS STRESS PERIOD. CURRENT PERIOD IS:       9

 USING EXTINCTION WATER CONTENT FROM PREVIOUS STRESS PERIOD. CURRENT PERIOD IS:       9

 USING AIR ENTRY PRESSURE FROM PREVIOUS STRESS PERIOD. CURRENT PERIOD IS:       9

 USING ROOT PRESSURE HEAD FROM PREVIOUS STRESS PERIOD. CURRENT PERIOD IS:       9

 USING ROOT ACTIVITY FROM PREVIOUS STRESS PERIOD. CURRENT PERIOD IS:       9

 PROCESSING AG STRESS PERIOD DATA

 READING AG STRESS PERIOD DATA

 READING IRRIGATION WELL

 END PROCESSING AG STRESS PERIOD DATA OPTIONS
 
 SOLVING FOR HEAD 
                                                   Max.-Head-Change                         Max.-Flux-Residual
  Residual-Control   Outer-Iter.   Inner-Iter.     Column Row Layer    Maximum-Head-Change  Column Row Layer    Maximum-Flux-Residual          L2-NORM 
          0                 1           2             4    7     1      -0.7134894497E-01       4    7    1        -0.3779766062E+01      0.1016498756E+02
          0                 2           2             4    7     1       0.6940149672E-02       4    7    1         0.3779657198E+00      0.1016451686E+01
          0                 3           2             4    7     1      -0.4725999997E-03       4    7    1        -0.2645771481E-01      0.7114867770E-01
          0                 4           1             4    7     1       0.1880518850E-04       4    7    1         0.1082121560E-02      0.2909803612E-02

    ------------------------------------------------
       NWT REQUIRED            4 OUTER ITERATIONS 
       AND A TOTAL OF          7 INNER ITERATIONS.
    ------------------------------------------------

 NO OUTPUT CONTROL FOR STRESS PERIOD    9   TIME STEP    1
 
 SOLVING FOR HEAD 
                                                   Max.-Head-Change                         Max.-Flux-Residual
  Residual-Control   Outer-Iter.   Inner-Iter.     Column Row Layer    Maximum-Head-Change  Column Row Layer    Maximum-Flux-Residual          L2-NORM 
          0                 1           2             4    7     1      -0.7002509663E-01       4    7    1        -0.3707128761E+01      0.1004096497E+02
          0                 2           2             4    7     1       0.6811209872E-02       4    7    1         0.3707025931E+00      0.1003953270E+01
          0                 3           2             4    7     1      -0.4638195913E-03       4    7    1        -0.2594929005E-01      0.7027425100E-01
          0                 4           1             4    7     1       0.1845580847E-04       4    7    1         0.1061326997E-02      0.2874053221E-02

    ------------------------------------------------
       NWT REQUIRED            4 OUTER ITERATIONS 
       AND A TOTAL OF          7 INNER ITERATIONS.
    ------------------------------------------------

 NO OUTPUT CONTROL FOR STRESS PERIOD    9   TIME STEP    2
 
 SOLVING FOR HEAD 
                                                   Max.-Head-Change                         Max.-Flux-Residual
  Residual-Control   Outer-Iter.   Inner-Iter.     Column Row Layer    Maximum-Head-Change  Column Row Layer    Maximum-Flux-Residual          L2-NORM 
          0                 1           2             4    7     1      -0.6877194339E-01       4    7    1        -0.3638350413E+01      0.9926272977E+01
          0                 2           2             4    7     1       0.6689494545E-02       4    7    1         0.3638253239E+00      0.9925947826E+00
          0                 3           2             4    7     1      -0.4555311501E-03       4    7    1        -0.2546787561E-01      0.6947984690E-01
          0                 4           1             4    7     1       0.1812600393E-04       4    7    1         0.1041637137E-02      0.2841616765E-02

    ------------------------------------------------
       NWT REQUIRED            4 OUTER ITERATIONS 
       AND A TOTAL OF          7 INNER ITERATIONS.
    ------------------------------------------------

 NO OUTPUT CONTROL FOR STRESS PERIOD    9   TIME STEP    3
 
 SOLVING FOR HEAD 
                                                   Max.-Head-Change                         Max.-Flux-Residual
  Residual-Control   Outer-Iter.   Inner-Iter.     Column Row Layer    Maximum-Head-Change  Column Row Layer    Maximum-Flux-Residual          L2-NORM 
          0                 1           2             4    7     1      -0.6758510212E-01       4    7    1        -0.3573226350E+01      0.9821190171E+01
          0                 2           2             4    7     1       0.6574054755E-02       4    7    1         0.3573134471E+00      0.9820922058E+00
          0                 3           2             4    7     1      -0.4476700549E-03       4    7    1        -0.2501203902E-01      0.6874509948E-01
          0                 4           1             4    7     1       0.1781320397E-04       4    7    1         0.1022993414E-02      0.2811569421E-02

    ------------------------------------------------
       NWT REQUIRED            4 OUTER ITERATIONS 
       AND A TOTAL OF          7 INNER ITERATIONS.
    ------------------------------------------------

 NO OUTPUT CONTROL FOR STRESS PERIOD    9   TIME STEP    4
 
 SOLVING FOR HEAD 
                                                   Max.-Head-Change                         Max.-Flux-Residual
  Residual-Control   Outer-Iter.   Inner-Iter.     Column Row Layer    Maximum-Head-Change  Column Row Layer    Maximum-Flux-Residual          L2-NORM 
          0                 1           2             4    7     1      -0.6646121642E-01       4    7    1        -0.3511564428E+01      0.9724572162E+01
          0                 2           2             4    7     1       0.6464738354E-02       4    7    1         0.3511477506E+00      0.9724346440E+00
          0                 3           2             4    7     1      -0.4402259449E-03       4    7    1        -0.2458043541E-01      0.6806935512E-01
          0                 4           1             4    7     1       0.1751699619E-04       4    7    1         0.1005340829E-02      0.2783944723E-02

    ------------------------------------------------
       NWT REQUIRED            4 OUTER ITERATIONS 
       AND A TOTAL OF          7 INNER ITERATIONS.
    ------------------------------------------------

 NO OUTPUT CONTROL FOR STRESS PERIOD    9   TIME STEP    5
 
 SOLVING FOR HEAD 
                                                   Max.-Head-Change                         Max.-Flux-Residual
  Residual-Control   Outer-Iter.   Inner-Iter.     Column Row Layer    Maximum-Head-Change  Column Row Layer    Maximum-Flux-Residual          L2-NORM 
          0                 1           2             4    7     1      -0.6539650754E-01       4    7    1        -0.3453159523E+01      0.9635454106E+01
          0                 2           2             4    7     1       0.6361177844E-02       4    7    1         0.3453077244E+00      0.9635706052E+00
          0                 3           2             4    7     1      -0.4331737939E-03       4    7    1        -0.2417162901E-01      0.6744909241E-01
          0                 4           1             4    7     1       0.1723638533E-04       4    7    1         0.9886206612E-03      0.2758617121E-02

    ------------------------------------------------
       NWT REQUIRED            4 OUTER ITERATIONS 
       AND A TOTAL OF          7 INNER ITERATIONS.
    ------------------------------------------------

 NO OUTPUT CONTROL FOR STRESS PERIOD    9   TIME STEP    6
 
 SOLVING FOR HEAD 
                                                   Max.-Head-Change                         Max.-Flux-Residual
  Residual-Control   Outer-Iter.   Inner-Iter.     Column Row Layer    Maximum-Head-Change  Column Row Layer    Maximum-Flux-Residual          L2-NORM 
          0                 1           2             4    7     1      -0.6438791388E-01       4    7    1        -0.3397844763E+01      0.9552969583E+01
          0                 2           2             4    7     1       0.6240983915E-02       4    7    1         0.3383430124E+00      0.9551023062E+00
          0                 3           2             4    7     1      -0.4249888489E-03       4    7    1        -0.2368408642E-01      0.6685643939E-01
          0                 4           1             4    7     1       0.1691069925E-04       4    7    1         0.9686801843E-03      0.2734338981E-02

    ------------------------------------------------
       NWT REQUIRED            4 OUTER ITERATIONS 
       AND A TOTAL OF          7 INNER ITERATIONS.
    ------------------------------------------------

 NO OUTPUT CONTROL FOR STRESS PERIOD    9   TIME STEP    7
 
 SOLVING FOR HEAD 
                                                   Max.-Head-Change                         Max.-Flux-Residual
  Residual-Control   Outer-Iter.   Inner-Iter.     Column Row Layer    Maximum-Head-Change  Column Row Layer    Maximum-Flux-Residual          L2-NORM 
          0                 1           2             4    7     1      -0.6348494338E-01       4    7    1        -0.3346624397E+01      0.9476526176E+01
          0                 2           2             4    7     1       0.6175256660E-02       4    7    1         0.3346557544E+00      0.9476945401E+00
          0                 3           2             4    7     1      -0.4205130362E-03       4    7    1        -0.2342597618E-01      0.6633804120E-01
          0                 4           1             4    7     1       0.1673260272E-04       4    7    1         0.9581234719E-03      0.2713166998E-02

    ------------------------------------------------
       NWT REQUIRED            4 OUTER ITERATIONS 
       AND A TOTAL OF          7 INNER ITERATIONS.
    ------------------------------------------------

 NO OUTPUT CONTROL FOR STRESS PERIOD    9   TIME STEP    8
 
 SOLVING FOR HEAD 
                                                   Max.-Head-Change                         Max.-Flux-Residual
  Residual-Control   Outer-Iter.   Inner-Iter.     Column Row Layer    Maximum-Head-Change  Column Row Layer    Maximum-Flux-Residual          L2-NORM 
          0                 1           2             4    7     1      -0.6260550538E-01       4    7    1        -0.3298517731E+01      0.9405418163E+01
          0                 2           2             4    7     1       0.6089715510E-02       4    7    1         0.3298453855E+00      0.9405289981E+00
          0                 3           2             4    7     1      -0.4146879596E-03       4    7    1        -0.2308924740E-01      0.6583654218E-01
          0                 4           1             4    7     1       0.1650081748E-04       4    7    1         0.9443512513E-03      0.2692674948E-02

    ------------------------------------------------
       NWT REQUIRED            4 OUTER ITERATIONS 
       AND A TOTAL OF          7 INNER ITERATIONS.
    ------------------------------------------------

 NO OUTPUT CONTROL FOR STRESS PERIOD    9   TIME STEP    9
 
 SOLVING FOR HEAD 
                                                   Max.-Head-Change                         Max.-Flux-Residual
  Residual-Control   Outer-Iter.   Inner-Iter.     Column Row Layer    Maximum-Head-Change  Column Row Layer    Maximum-Flux-Residual          L2-NORM 
          0                 1           2             4    7     1      -0.6177005110E-01       4    7    1        -0.3252831186E+01      0.9339030319E+01
          0                 2           2             4    7     1       0.6008452609E-02       4    7    1         0.3252770133E+00      0.9338915308E+00
          0                 3           2             4    7     1      -0.4091542175E-03       4    7    1        -0.2276945852E-01      0.6537203897E-01
          0                 4           1             4    7     1       0.1628062489E-04       4    7    1         0.9312718714E-03      0.2673689037E-02

    ------------------------------------------------
       NWT REQUIRED            4 OUTER ITERATIONS 
       AND A TOTAL OF          7 INNER ITERATIONS.
    ------------------------------------------------

 NO OUTPUT CONTROL FOR STRESS PERIOD    9   TIME STEP   10
 
 SOLVING FOR HEAD 
                                                   Max.-Head-Change                         Max.-Flux-Residual
  Residual-Control   Outer-Iter.   Inner-Iter.     Column Row Layer    Maximum-Head-Change  Column Row Layer    Maximum-Flux-Residual          L2-NORM 
          0                 1           2             4    7     1      -0.6097589262E-01       4    7    1        -0.3209417951E+01      0.9276895855E+01
          0                 2           2             4    7     1       0.5931206460E-02       4    7    1         0.3209359575E+00      0.9276786073E+00
          0                 3           2             4    7     1      -0.4038940042E-03       4    7    1        -0.2246558197E-01      0.6493720854E-01
          0                 4           1             4    7     1       0.1607131635E-04       4    7    1         0.9188433148E-03      0.2655911541E-02

    ------------------------------------------------
       NWT REQUIRED            4 OUTER ITERATIONS 
       AND A TOTAL OF          7 INNER ITERATIONS.
    ------------------------------------------------

 NO OUTPUT CONTROL FOR STRESS PERIOD    9   TIME STEP   11
 
 SOLVING FOR HEAD 
                                                   Max.-Head-Change                         Max.-Flux-Residual
  Residual-Control   Outer-Iter.   Inner-Iter.     Column Row Layer    Maximum-Head-Change  Column Row Layer    Maximum-Flux-Residual          L2-NORM 
          0                 1           2             4    7     1      -0.6022073265E-01       4    7    1        -0.3168153182E+01      0.9218579738E+01
          0                 2           2             4    7     1       0.5857753603E-02       4    7    1         0.3168097342E+00      0.9218484827E+00
          0                 3           2             4    7     1      -0.3988921017E-03       4    7    1        -0.2217674379E-01      0.6452913070E-01
          0                 4           1             4    7     1       0.1587228629E-04       4    7    1         0.9070298511E-03      0.2639223850E-02

    ------------------------------------------------
       NWT REQUIRED            4 OUTER ITERATIONS 
       AND A TOTAL OF          7 INNER ITERATIONS.
    ------------------------------------------------

 NO OUTPUT CONTROL FOR STRESS PERIOD    9   TIME STEP   12
 
 SOLVING FOR HEAD 
                                                   Max.-Head-Change                         Max.-Flux-Residual
  Residual-Control   Outer-Iter.   Inner-Iter.     Column Row Layer    Maximum-Head-Change  Column Row Layer    Maximum-Flux-Residual          L2-NORM 
          0                 1           2             4    7     1      -0.5950240072E-01       4    7    1        -0.3128917761E+01      0.9163708047E+01
          0                 2           2             4    7     1       0.5787882921E-02       4    7    1         0.3128864322E+00      0.9163620900E+00
          0                 3           2             4    7     1      -0.3941341340E-03       4    7    1        -0.2190211029E-01      0.6414513160E-01
          0                 4           1             4    7     1       0.1568296252E-04       4    7    1         0.8957973334E-03      0.2623519063E-02

    ------------------------------------------------
       NWT REQUIRED            4 OUTER ITERATIONS 
       AND A TOTAL OF          7 INNER ITERATIONS.
    ------------------------------------------------

 NO OUTPUT CONTROL FOR STRESS PERIOD    9   TIME STEP   13
 
 SOLVING FOR HEAD 
                                                   Max.-Head-Change                         Max.-Flux-Residual
  Residual-Control   Outer-Iter.   Inner-Iter.     Column Row Layer    Maximum-Head-Change  Column Row Layer    Maximum-Flux-Residual          L2-NORM 
          0                 1           2             4    7     1      -0.5881870145E-01       4    7    1        -0.3091591890E+01      0.9111909547E+01
          0                 2           2             4    7     1       0.5721380871E-02       4    7    1         0.3091540723E+00      0.9111829258E+00
          0                 3           2             4    7     1      -0.3896055587E-03       4    7    1        -0.2164084283E-01      0.6378262545E-01
          0                 4           1             4    7     1       0.1550276606E-04       4    7    1         0.8851114608E-03      0.2608697453E-02

    ------------------------------------------------
       NWT REQUIRED            4 OUTER ITERATIONS 
       AND A TOTAL OF          7 INNER ITERATIONS.
    ------------------------------------------------

 NO OUTPUT CONTROL FOR STRESS PERIOD    9   TIME STEP   14
 
 SOLVING FOR HEAD 
                                                   Max.-Head-Change                         Max.-Flux-Residual
  Residual-Control   Outer-Iter.   Inner-Iter.     Column Row Layer    Maximum-Head-Change  Column Row Layer    Maximum-Flux-Residual          L2-NORM 
          0                 1           2             4    7     1      -0.5816768965E-01       4    7    1        -0.3056068995E+01      0.9062912034E+01
          0                 2           2             4    7     1       0.5658058246E-02       4    7    1         0.3056019977E+00      0.9062837703E+00
          0                 3           2             4    7     1      -0.3852934930E-03       4    7    1        -0.2139219546E-01      0.6343973036E-01
          0                 4           1             4    7     1       0.1533118530E-04       4    7    1         0.8749417941E-03      0.2594680228E-02

    ------------------------------------------------
       NWT REQUIRED            4 OUTER ITERATIONS 
       AND A TOTAL OF          7 INNER ITERATIONS.
    ------------------------------------------------

 NO OUTPUT CONTROL FOR STRESS PERIOD    9   TIME STEP   15
 
 SOLVING FOR HEAD 
                                                   Max.-Head-Change                         Max.-Flux-Residual
  Residual-Control   Outer-Iter.   Inner-Iter.     Column Row Layer    Maximum-Head-Change  Column Row Layer    Maximum-Flux-Residual          L2-NORM 
          0                 1           2             4    7     1      -0.5754752775E-01       4    7    1        -0.3022248214E+01      0.9016421071E+01
          0                 2           2             4    7     1       0.5597736307E-02       4    7    1         0.3022201228E+00      0.9016522358E+00
          0                 3           2             4    7     1      -0.3811857620E-03       4    7    1        -0.2115546220E-01      0.6311420274E-01
          0                 4           1             4    7     1       0.1516773519E-04       4    7    1         0.8652594081E-03      0.2581364831E-02

    ------------------------------------------------
       NWT REQUIRED            4 OUTER ITERATIONS 
       AND A TOTAL OF          7 INNER ITERATIONS.
    ------------------------------------------------

 NO OUTPUT CONTROL FOR STRESS PERIOD    9   TIME STEP   16
 
 SOLVING FOR HEAD 
                                                   Max.-Head-Change                         Max.-Flux-Residual
  Residual-Control   Outer-Iter.   Inner-Iter.     Column Row Layer    Maximum-Head-Change  Column Row Layer    Maximum-Flux-Residual          L2-NORM 
          0                 1           2             4    7     1      -0.5695621052E-01       4    7    1        -0.2990019759E+01      0.8972205787E+01
          0                 2           2             4    7     1       0.5540222746E-02       4    7    1         0.2989974692E+00      0.8973958748E+00
          0                 3           2             4    7     1      -0.3772692768E-03       4    7    1        -0.2092987452E-01      0.6281761238E-01
          0                 4           1             4    7     1       0.1501189444E-04       4    7    1         0.8560328577E-03      0.2569238159E-02

    ------------------------------------------------
       NWT REQUIRED            4 OUTER ITERATIONS 
       AND A TOTAL OF          7 INNER ITERATIONS.
    ------------------------------------------------

 NO OUTPUT CONTROL FOR STRESS PERIOD    9   TIME STEP   17
 
 SOLVING FOR HEAD 
                                                   Max.-Head-Change                         Max.-Flux-Residual
  Residual-Control   Outer-Iter.   Inner-Iter.     Column Row Layer    Maximum-Head-Change  Column Row Layer    Maximum-Flux-Residual          L2-NORM 
          0                 1           2             4    7     1      -0.5639209742E-01       4    7    1        -0.2959294024E+01      0.8929877846E+01
          0                 2           2             4    7     1       0.5485349790E-02       4    7    1         0.2959250769E+00      0.8929819411E+00
          0                 3           2             4    7     1      -0.3735326067E-03       4    7    1        -0.2071480526E-01      0.6250865933E-01
          0                 4           1             4    7     1       0.1486320899E-04       4    7    1         0.8472365223E-03      0.2556598770E-02

    ------------------------------------------------
       NWT REQUIRED            4 OUTER ITERATIONS 
       AND A TOTAL OF          7 INNER ITERATIONS.
    ------------------------------------------------

 NO OUTPUT CONTROL FOR STRESS PERIOD    9   TIME STEP   18
 
 SOLVING FOR HEAD 
                                                   Max.-Head-Change                         Max.-Flux-Residual
  Residual-Control   Outer-Iter.   Inner-Iter.     Column Row Layer    Maximum-Head-Change  Column Row Layer    Maximum-Flux-Residual          L2-NORM 
          0                 1           2             4    7     1      -0.5585365817E-01       4    7    1        -0.2929986378E+01      0.8889446104E+01
          0                 2           2             4    7     1       0.5432976783E-02       4    7    1         0.2929944834E+00      0.8889390888E+00
          0                 3           2             4    7     1      -0.3699661748E-03       4    7    1        -0.2050966200E-01      0.6222567501E-01
          0                 4           1             4    7     1       0.1472129718E-04       4    7    1         0.8388461449E-03      0.2545024663E-02

    ------------------------------------------------
       NWT REQUIRED            4 OUTER ITERATIONS 
       AND A TOTAL OF          7 INNER ITERATIONS.
    ------------------------------------------------

 NO OUTPUT CONTROL FOR STRESS PERIOD    9   TIME STEP   19
 
 SOLVING FOR HEAD 
                                                   Max.-Head-Change                         Max.-Flux-Residual
  Residual-Control   Outer-Iter.   Inner-Iter.     Column Row Layer    Maximum-Head-Change  Column Row Layer    Maximum-Flux-Residual          L2-NORM 
          0                 1           2             4    7     1      -0.5533930900E-01       4    7    1        -0.2902009788E+01      0.8850716156E+01
          0                 2           2             4    7     1       0.5382946949E-02       4    7    1         0.2901969858E+00      0.8850663763E+00
          0                 3           2             4    7     1      -0.3665593062E-03       4    7    1        -0.2031383557E-01      0.6195460118E-01
          0                 4           1             4    7     1       0.1458573512E-04       4    7    1         0.8308368504E-03      0.2533946309E-02

    ------------------------------------------------
       NWT REQUIRED            4 OUTER ITERATIONS 
       AND A TOTAL OF          7 INNER ITERATIONS.
    ------------------------------------------------

 NO OUTPUT CONTROL FOR STRESS PERIOD    9   TIME STEP   20
 
 SOLVING FOR HEAD 
                                                   Max.-Head-Change                         Max.-Flux-Residual
  Residual-Control   Outer-Iter.   Inner-Iter.     Column Row Layer    Maximum-Head-Change  Column Row Layer    Maximum-Flux-Residual          L2-NORM 
          0                 1           2             4    7     1      -0.5484755570E-01       4    7    1        -0.2875282280E+01      0.8813548328E+01
          0                 2           2             4    7     1       0.5335114946E-02       4    7    1         0.2875243873E+00      0.8813498504E+00
          0                 3           2             4    7     1      -0.3633021029E-03       4    7    1        -0.2012675217E-01      0.6169445363E-01
          0                 4           1             4    7     1       0.1445612781E-04       4    7    1         0.8231851314E-03      0.2523303888E-02

    ------------------------------------------------
       NWT REQUIRED            4 OUTER ITERATIONS 
       AND A TOTAL OF          7 INNER ITERATIONS.
    ------------------------------------------------

 NO OUTPUT CONTROL FOR STRESS PERIOD    9   TIME STEP   21
 
 SOLVING FOR HEAD 
                                                   Max.-Head-Change                         Max.-Flux-Residual
  Residual-Control   Outer-Iter.   Inner-Iter.     Column Row Layer    Maximum-Head-Change  Column Row Layer    Maximum-Flux-Residual          L2-NORM 
          0                 1           2             4    7     1      -0.5437712499E-01       4    7    1        -0.2849733630E+01      0.8777791117E+01
          0                 2           2             4    7     1       0.5289356926E-02       4    7    1         0.2849696659E+00      0.8777743598E+00
          0                 3           2             4    7     1      -0.3601861311E-03       4    7    1        -0.1994792020E-01      0.6144418757E-01
          0                 4           1             4    7     1       0.1433214091E-04       4    7    1         0.8158709102E-03      0.2513062658E-02

    ------------------------------------------------
       NWT REQUIRED            4 OUTER ITERATIONS 
       AND A TOTAL OF          7 INNER ITERATIONS.
    ------------------------------------------------

 NO OUTPUT CONTROL FOR STRESS PERIOD    9   TIME STEP   22
 
 SOLVING FOR HEAD 
                                                   Max.-Head-Change                         Max.-Flux-Residual
  Residual-Control   Outer-Iter.   Inner-Iter.     Column Row Layer    Maximum-Head-Change  Column Row Layer    Maximum-Flux-Residual          L2-NORM 
          0                 1           2             4    7     1      -0.5392668833E-01       4    7    1        -0.2825290567E+01      0.8743329413E+01
          0                 2           2             4    7     1       0.5245543666E-02       4    7    1         0.2825254949E+00      0.8743284011E+00
          0                 3           2             4    7     1      -0.3572025918E-03       4    7    1        -0.1977682689E-01      0.6120298619E-01
          0                 4           1             4    7     1       0.1421342329E-04       4    7    1         0.8088732097E-03      0.2503209426E-02

    ------------------------------------------------
       NWT REQUIRED            4 OUTER ITERATIONS 
       AND A TOTAL OF          7 INNER ITERATIONS.
    ------------------------------------------------

 NO OUTPUT CONTROL FOR STRESS PERIOD    9   TIME STEP   23
 
 SOLVING FOR HEAD 
                                                   Max.-Head-Change                         Max.-Flux-Residual
  Residual-Control   Outer-Iter.   Inner-Iter.     Column Row Layer    Maximum-Head-Change  Column Row Layer    Maximum-Flux-Residual          L2-NORM 
          0                 1           2             4    7     1      -0.5349499275E-01       4    7    1        -0.2801884204E+01      0.8710049900E+01
          0                 2           2             4    7     1       0.5203553290E-02       4    7    1         0.2801849863E+00      0.8710006199E+00
          0                 3           2             4    7     1      -0.3543431848E-03       4    7    1        -0.1961299000E-01      0.6097003484E-01
          0                 4           1             4    7     1       0.1409964510E-04       4    7    1         0.8021722726E-03      0.2493668805E-02

    ------------------------------------------------
       NWT REQUIRED            4 OUTER ITERATIONS 
       AND A TOTAL OF          7 INNER ITERATIONS.
    ------------------------------------------------

 NO OUTPUT CONTROL FOR STRESS PERIOD    9   TIME STEP   24
 
 SOLVING FOR HEAD 
                                                   Max.-Head-Change                         Max.-Flux-Residual
  Residual-Control   Outer-Iter.   Inner-Iter.     Column Row Layer    Maximum-Head-Change  Column Row Layer    Maximum-Flux-Residual          L2-NORM 
          0                 1           2             4    7     1      -0.5308099622E-01       4    7    1        -0.2779456825E+01      0.8677867499E+01
          0                 2           2             4    7     1       0.5163284446E-02       4    7    1         0.2779423687E+00      0.8677825419E+00
          0                 3           2             4    7     1      -0.3516010087E-03       4    7    1        -0.1945600557E-01      0.6074478354E-01
          0                 4           1             4    7     1       0.1399053096E-04       4    7    1         0.7957515907E-03      0.2484462859E-02

    ------------------------------------------------
       NWT REQUIRED            4 OUTER ITERATIONS 
       AND A TOTAL OF          7 INNER ITERATIONS.
    ------------------------------------------------

 NO OUTPUT CONTROL FOR STRESS PERIOD    9   TIME STEP   25
 
 SOLVING FOR HEAD 
                                                   Max.-Head-Change                         Max.-Flux-Residual
  Residual-Control   Outer-Iter.   Inner-Iter.     Column Row Layer    Maximum-Head-Change  Column Row Layer    Maximum-Flux-Residual          L2-NORM 
          0                 1           2             4    7     1      -0.5268358044E-01       4    7    1        -0.2757947151E+01      0.8646677672E+01
          0                 2           2             4    7     1       0.5124628356E-02       4    7    1         0.2757915145E+00      0.8646637032E+00
          0                 3           2             4    7     1      -0.3489686565E-03       4    7    1        -0.1930544464E-01      0.6052647488E-01
          0                 4           1             4    7     1       0.1388578717E-04       4    7    1         0.7895936458E-03      0.2475532095E-02

    ------------------------------------------------
       NWT REQUIRED            4 OUTER ITERATIONS 
       AND A TOTAL OF          7 INNER ITERATIONS.
    ------------------------------------------------

 NO OUTPUT CONTROL FOR STRESS PERIOD    9   TIME STEP   26
 
 SOLVING FOR HEAD 
                                                   Max.-Head-Change                         Max.-Flux-Residual
  Residual-Control   Outer-Iter.   Inner-Iter.     Column Row Layer    Maximum-Head-Change  Column Row Layer    Maximum-Flux-Residual          L2-NORM 
          0                 1           2             4    7     1      -0.5230170426E-01       4    7    1        -0.2737297197E+01      0.8616415308E+01
          0                 2           2             4    7     1       0.5087483753E-02       4    7    1         0.2737266259E+00      0.8616375878E+00
          0                 3           2             4    7     1      -0.3464392318E-03       4    7    1        -0.1916090137E-01      0.6031464282E-01
          0                 4           1             4    7     1       0.1378513917E-04       4    7    1         0.7836818186E-03      0.2466871586E-02

    ------------------------------------------------
       NWT REQUIRED            4 OUTER ITERATIONS 
       AND A TOTAL OF          7 INNER ITERATIONS.
    ------------------------------------------------

 NO OUTPUT CONTROL FOR STRESS PERIOD    9   TIME STEP   27
 
 SOLVING FOR HEAD 
                                                   Max.-Head-Change                         Max.-Flux-Residual
  Residual-Control   Outer-Iter.   Inner-Iter.     Column Row Layer    Maximum-Head-Change  Column Row Layer    Maximum-Flux-Residual          L2-NORM 
          0                 1           2             4    7     1      -0.5193438418E-01       4    7    1        -0.2717452980E+01      0.8586995420E+01
          0                 2           2             4    7     1       0.5051754973E-02       4    7    1         0.2717423048E+00      0.8586957142E+00
          0                 3           2             4    7     1      -0.3440062200E-03       4    7    1        -0.1902199788E-01      0.6010871381E-01
          0                 4           1             4    7     1       0.1368832745E-04       4    7    1         0.7780006540E-03      0.2458443192E-02

    ------------------------------------------------
       NWT REQUIRED            4 OUTER ITERATIONS 
       AND A TOTAL OF          7 INNER ITERATIONS.
    ------------------------------------------------

 NO OUTPUT CONTROL FOR STRESS PERIOD    9   TIME STEP   28
 
 SOLVING FOR HEAD 
                                                   Max.-Head-Change                         Max.-Flux-Residual
  Residual-Control   Outer-Iter.   Inner-Iter.     Column Row Layer    Maximum-Head-Change  Column Row Layer    Maximum-Flux-Residual          L2-NORM 
          0                 1           2             3    7     1      -0.5165960020E-01       4    7    1        -0.2698363506E+01      0.8558372410E+01
          0                 2           2             3    7     1       0.5025031666E-02       4    7    1         0.2698334522E+00      0.8558335248E+00
          0                 3           2             3    7     1      -0.3421864064E-03       4    7    1        -0.1888837725E-01      0.5990836790E-01
          0                 4           1             3    7     1       0.1361594178E-04       4    7    1         0.7725355779E-03      0.2450255748E-02

    ------------------------------------------------
       NWT REQUIRED            4 OUTER ITERATIONS 
       AND A TOTAL OF          7 INNER ITERATIONS.
    ------------------------------------------------

 NO OUTPUT CONTROL FOR STRESS PERIOD    9   TIME STEP   29
 
 SOLVING FOR HEAD 
                                                   Max.-Head-Change                         Max.-Flux-Residual
  Residual-Control   Outer-Iter.   Inner-Iter.     Column Row Layer    Maximum-Head-Change  Column Row Layer    Maximum-Flux-Residual          L2-NORM 
          0                 1           2             3    7     1      -0.5141754187E-01       4    7    1        -0.2679988169E+01      0.8530467956E+01
          0                 2           2             3    7     1       0.5001486258E-02       4    7    1         0.2679960078E+00      0.8530431691E+00
          0                 3           2             3    7     1      -0.3405830488E-03       4    7    1        -0.1875975523E-01      0.5971304138E-01
          0                 4           1             3    7     1       0.1355214175E-04       4    7    1         0.7672749416E-03      0.2442256606E-02

    ------------------------------------------------
       NWT REQUIRED            4 OUTER ITERATIONS 
       AND A TOTAL OF          7 INNER ITERATIONS.
    ------------------------------------------------

 NO OUTPUT CONTROL FOR STRESS PERIOD    9   TIME STEP   30



 STREAM LISTING     PERIOD      9   STEP       30

 LAYER ROW COL. STREAM  RCH.  FLOW INTO     FLOW TO   FLOW OUT OF   OVRLND.     DIRECT     STREAM       STREAM     STREAM     STREAM   STREAMBED  STREAMBED
                SEG.NO.  NO.  STRM. RCH.    AQUIFER    STRM. RCH.    RUNOFF     PRECIP       ET          HEAD       DEPTH      WIDTH   CONDCTNC.   GRADIENT

   1    1    1     1     1    6.1000E+01  3.7546E-01   6.0624E+01  0.000E+00  0.000E+00  0.000E+00  1.09459E+03  1.538E+00  1.839E+01  8.274E-02  1.513E+00
   1    2    2     1     2    6.0624E+01  5.8146E-01   6.0043E+01  0.000E+00  0.000E+00  0.000E+00  1.08959E+03  1.532E+00  1.833E+01  1.283E-01  1.511E+00
   1    3    3     1     3    6.0043E+01  4.9588E-01   5.9547E+01  0.000E+00  0.000E+00  0.000E+00  1.08394E+03  1.525E+00  1.826E+01  1.096E-01  1.508E+00
   1    3    4     1     4    5.9547E+01  4.5664E-01   5.9090E+01  0.000E+00  0.000E+00  0.000E+00  1.07893E+03  1.519E+00  1.821E+01  1.010E-01  1.506E+00
   1    4    5     2     1    5.7090E+01  3.8827E-01   5.6702E+01  0.000E+00  0.000E+00  0.000E+00  1.07391E+03  1.978E+00  1.200E+01  7.800E-02  1.659E+00
   1    5    6     2     2    5.6702E+01  2.9824E-01   5.6404E+01  0.000E+00  0.000E+00  0.000E+00  1.06848E+03  1.971E+00  1.200E+01  6.000E-02  1.657E+00
   1    6    6     2     3    5.6404E+01  2.9787E-01   5.6106E+01  0.000E+00  0.000E+00  0.000E+00  1.06376E+03  1.964E+00  1.200E+01  6.000E-02  1.655E+00
   1    7    6     2     4    5.6106E+01  2.9749E-01   5.5808E+01  0.000E+00  0.000E+00  0.000E+00  1.05903E+03  1.958E+00  1.200E+01  6.000E-02  1.653E+00
   1    8    6     2     5    5.5808E+01  2.9712E-01   5.5511E+01  0.000E+00  0.000E+00  0.000E+00  1.05431E+03  1.952E+00  1.200E+01  6.000E-02  1.651E+00
   1    3    5     3     1    2.0000E+00  2.8252E-01   1.7175E+00  0.000E+00  0.000E+00  0.000E+00  1.07555E+03  1.909E+00  9.636E+00  7.227E-02  1.955E+00
   1    3    6     3     2    1.7175E+00  2.4905E-01   1.4684E+00  0.000E+00  0.000E+00  0.000E+00  1.07264E+03  1.727E+00  8.909E+00  6.682E-02  1.864E+00
   1    3    7     3     3    1.4684E+00  1.9718E-01   1.2712E+00  0.000E+00  0.000E+00  0.000E+00  1.06987E+03  1.555E+00  8.218E+00  5.547E-02  1.777E+00
   1    4    8     3     4    1.2712E+00  2.2567E-01   1.0456E+00  0.000E+00  0.000E+00  0.000E+00  1.06682E+03  1.364E+00  7.455E+00  6.709E-02  1.682E+00
   1    5    8     3     5    1.0456E+00  1.5790E-01   8.8768E-01  0.000E+00  0.000E+00  0.000E+00  1.06362E+03  1.164E+00  6.655E+00  4.991E-02  1.582E+00
   1    6    8     3     6    8.8768E-01  5.5980E-02   8.3170E-01  0.000E+00  0.000E+00  0.000E+00  1.06158E+03  1.036E+00  6.145E+00  1.844E-02  1.518E+00
   1    5   10     4     1    1.0000E+01  9.0919E-02   9.9091E+00  0.000E+00  0.000E+00  0.000E+00  1.07836E+03  6.368E-01  1.000E+01  2.500E-02  1.212E+00
   1    5    9     4     2    9.9091E+00  1.8158E-01   9.7275E+00  0.000E+00  0.000E+00  0.000E+00  1.07154E+03  6.315E-01  1.000E+01  5.000E-02  1.211E+00
   1    6    8     4     3    9.7275E+00  1.2689E-01   9.6006E+00  0.000E+00  0.000E+00  0.000E+00  1.06381E+03  6.256E-01  1.000E+01  3.500E-02  1.209E+00
   1    6    8     5     1    1.0432E+01  2.2686E-01   1.0205E+01  0.000E+00  0.000E+00  0.000E+00  1.05868E+03  6.790E-01  1.542E+01  6.166E-02  1.226E+00
   1    7    7     5     2    1.0205E+01  2.7894E-01   9.9265E+00  0.000E+00  0.000E+00  0.000E+00  1.05417E+03  6.732E-01  1.519E+01  7.594E-02  1.224E+00
   1    8    7     5     3    9.9265E+00  1.9221E-01   9.7343E+00  0.000E+00  0.000E+00  0.000E+00  1.04992E+03  6.676E-01  1.497E+01  5.241E-02  1.223E+00
   1    8    6     5     4    9.7343E+00  1.3577E-01   9.5985E+00  0.000E+00  0.000E+00  0.000E+00  1.04691E+03  6.637E-01  1.482E+01  3.706E-02  1.221E+00
   1    9    6     6     1    6.5110E+01  3.0992E-01   6.4800E+01  0.000E+00  0.000E+00  0.000E+00  1.04489E+03  2.165E+00  1.200E+01  6.000E-02  1.722E+00
   1   10    7     6     2    6.4800E+01  3.0955E-01   6.4490E+01  0.000E+00  0.000E+00  0.000E+00  1.04034E+03  2.159E+00  1.200E+01  6.000E-02  1.720E+00
   1   11    7     6     3    6.4490E+01  3.0918E-01   6.4181E+01  0.000E+00  0.000E+00  0.000E+00  1.03579E+03  2.153E+00  1.200E+01  6.000E-02  1.718E+00
   1   12    7     6     4    6.4181E+01  3.0881E-01   6.3872E+01  0.000E+00  0.000E+00  0.000E+00  1.03124E+03  2.147E+00  1.200E+01  6.000E-02  1.716E+00
   1   13    7     6     5    6.3872E+01  1.9330E-02   6.3853E+01  0.000E+00  0.000E+00  0.000E+00  1.02805E+03  2.143E+00  1.200E+01  2.400E-02  2.685E-01
   1   14    9     7     1    1.5000E+02  1.3312E+00   1.4867E+02  0.000E+00  0.000E+00  0.000E+00  1.03987E+03  2.288E+00  5.529E+01  5.593E-01  7.934E-01
   1   13    8     7     2    1.4867E+02  1.7954E+00   1.4687E+02  0.000E+00  0.000E+00  0.000E+00  1.03478E+03  2.279E+00  5.526E+01  6.148E-01  9.735E-01
   1   13    7     7     3    1.4687E+02  1.3645E+00   1.4551E+02  0.000E+00  0.000E+00  0.000E+00  1.02969E+03  2.271E+00  5.522E+01  5.585E-01  8.144E-01
   1   13    6     8     1    2.0936E+02  9.6401E-01   2.0840E+02  0.000E+00  0.000E+00  0.000E+00  1.02506E+03  3.189E+00  4.624E+01  4.712E-01  6.819E-01
   1   13    5     8     2    2.0840E+02  1.6999E-01   2.0823E+02  0.000E+00  0.000E+00  0.000E+00  1.01881E+03  3.186E+00  4.620E+01  4.708E-01  1.204E-01
   1   13    4     8     3    2.0823E+02 -2.1839E+00   2.1041E+02  0.000E+00  0.000E+00  0.000E+00  1.01257E+03  3.192E+00  4.628E+01  4.716E+00 -1.544E-01
   1   13    3     8     4    2.1041E+02 -3.3101E+00   2.1372E+02  0.000E+00  0.000E+00  0.000E+00  1.00633E+03  3.207E+00  4.651E+01  4.739E+00 -2.328E-01
   1   13    2     8     5    2.1372E+02 -2.5497E+00   2.1627E+02  0.000E+00  0.000E+00  0.000E+00  1.00010E+03  3.224E+00  4.675E+01  4.764E+00 -1.784E-01
   1   13    1     8     6    2.1627E+02 -2.0052E+00   2.1828E+02  0.000E+00  0.000E+00  0.000E+00  9.95112E+02  3.237E+00  4.693E+01  2.870E+00 -2.329E-01





UNSATURATED ZONE PACKAGE VOLUMETRIC BUDGET FOR  TIME STEP    30 STRESS PERIOD    9
  ------------------------------------------------------------------------------



     CUMULATIVE VOLUMES      L**3       RATES FOR THIS TIME STEP      L**3/T
     ------------------                 ------------------------

           IN:                                      IN:
           ---                                      ---
        INFILTRATION =   534492737.2805          INFILTRATION =          52.8575

          OUT:                                     OUT:
          ----                                     ----
              UZF ET =   445009384.5457                UZF ET =          52.8575
        UZF RECHARGE =      388459.6891          UZF RECHARGE =       0.0000E+00

            IN - OUT =    89094893.0458              IN - OUT =       0.0000E+00

          STORAGE:                                 STORAGE:
          --------                                 --------
      STORAGE CHANGE =    89095460.6930        STORAGE CHANGE =      -1.6402E-13

 PERCENT DISCREPANCY IS DIFFERENCE BETWEEN IN-OUT MINUS CHANGE IN STORAGE
 DIVIDED BY THE AVERAGE OF IN AND OUT TIMES 100

 PERCENT DISCREPANCY =          -0.00     PERCENT DISCREPANCY =           0.00






1
  VOLUMETRIC BUDGET FOR AGRICULTURAL FIELDS AT TIME STEP   30, STRESS PERIOD   9
  ------------------------------------------------------------------------------

     CUMULATIVE VOLUMES      L**3       RATES FOR THIS TIME STEP      L**3/T
     ------------------                 ------------------------

           IN:                                      IN:
           ---                                      ---
               AG WELLS  =   441685952.0000                 AG WELLS  =          48.4500
      DIVERSION SEGMENTS =           0.0000        DIVERSION SEGMENTS =           0.0000
           GW IRRIGATION =           0.0000             GW IRRIGATION =           0.0000
           SW IRRIGATION =           0.0000             SW IRRIGATION =           0.0000
        SYSTEM LOSSES GW =           0.0000          SYSTEM LOSSES GW =           0.0000
        SYSTEM LOSSES SW =           0.0000          SYSTEM LOSSES SW =           0.0000

                TOTAL IN =   441685952.0000                  TOTAL IN =          48.4500

          OUT:                                     OUT:
          ----                                     ----
               AG WELLS  =           0.0000                 AG WELLS  =           0.0000
      DIVERSION SEGMENTS =           0.0000        DIVERSION SEGMENTS =           0.0000
           GW IRRIGATION =   441685952.0000             GW IRRIGATION =          48.4500
           SW IRRIGATION =           0.0000             SW IRRIGATION =           0.0000
        SYSTEM LOSSES GW =           0.0000          SYSTEM LOSSES GW =           0.0000
        SYSTEM LOSSES SW =           0.0000          SYSTEM LOSSES SW =           0.0000

               TOTAL OUT =   441685952.0000                 TOTAL OUT =          48.4500

                IN - OUT =           0.0000                  IN - OUT =           0.0000

     PERCENT DISCREPANCY =           0.00         PERCENT DISCREPANCY =           0.00



1
  VOLUMETRIC BUDGET FOR ENTIRE MODEL AT END OF TIME STEP   30, STRESS PERIOD   9
  ------------------------------------------------------------------------------

     CUMULATIVE VOLUMES      L**3       RATES FOR THIS TIME STEP      L**3/T
     ------------------                 ------------------------

           IN:                                      IN:
           ---                                      ---
             STORAGE     =   444362176.0000               STORAGE     =          47.4907
       CONSTANT HEAD     =           0.0000         CONSTANT HEAD     =           0.0000
     HEAD DEP BOUNDS     =     6030661.0000       HEAD DEP BOUNDS     =           0.2854
      STREAM LEAKAGE     =   270648224.0000        STREAM LEAKAGE     =          12.7717
        UZF RECHARGE     =      388459.5938          UZF RECHARGE     =           0.0000
               GW ET     =           0.0000                 GW ET     =           0.0000
     SURFACE LEAKAGE     =           0.0000       SURFACE LEAKAGE     =           0.0000
           AG WELLS      =           0.0000             AG WELLS      =           0.0000

                TOTAL IN =   721429504.0000                  TOTAL IN =          60.5478

          OUT:                                     OUT:
          ----                                     ----
             STORAGE     =    47895868.0000               STORAGE     =           0.7726
       CONSTANT HEAD     =           0.0000         CONSTANT HEAD     =           0.0000
     HEAD DEP BOUNDS     =     6243022.0000       HEAD DEP BOUNDS     =           0.2968
      STREAM LEAKAGE     =   212723552.0000        STREAM LEAKAGE     =          10.0489
        UZF RECHARGE     =           0.0000          UZF RECHARGE     =           0.0000
               GW ET     =    12879571.0000                 GW ET     =           0.9797
     SURFACE LEAKAGE     =           0.0000       SURFACE LEAKAGE     =           0.0000
           AG WELLS      =   441685952.0000             AG WELLS      =          48.4500

               TOTAL OUT =   721427968.0000                 TOTAL OUT =          60.5480

                IN - OUT =        1536.0000                  IN - OUT =      -1.6785E-04

     PERCENT DISCREPANCY =           0.00         PERCENT DISCREPANCY =          -0.00






         TIME SUMMARY AT END OF TIME STEP   30 IN STRESS PERIOD    9
                    SECONDS     MINUTES      HOURS       DAYS        YEARS
                    -----------------------------------------------------------
   TIME STEP LENGTH  87667.      1461.1      24.352      1.0147     2.77799E-03
 STRESS PERIOD TIME 2.63000E+06  43833.      730.56      30.440     8.33397E-02
         TOTAL TIME 2.11264E+07 3.52107E+05  5868.4      244.52     0.66945    
1
1
                            STRESS PERIOD NO.   10, LENGTH =   2630000.    
                            -----------------------------------------------

                              NUMBER OF TIME STEPS =    30

                               MULTIPLIER FOR DELT =     1.000

                            INITIAL TIME STEP SIZE =   87666.66    

 REUSING NON-PARAMETER GHB CELLS FROM LAST STRESS PERIOD

      2 GHB CELLS

 REUSING STREAM SEGMENT DATA FROM LAST STRESS PERIOD



            AREAL INFILTRATION RATE
 READING ON UNIT   19 WITH FORMAT: (10F4.0)            

            1           2           3           4           5           6           7           8           9          10
 ........................................................................................................................
   1   1.2000E-09   0.000       0.000       0.000       0.000       0.000       0.000       0.000       0.000       0.000    
   2   2.1000E-09  2.0000E-09  8.0000E-10  8.5000E-09   0.000       0.000       0.000       0.000       0.000       0.000    
   3   5.0000E-10  1.1000E-09  8.8000E-09  5.5000E-09   0.000       0.000       0.000       0.000       0.000       0.000    
   4   8.5000E-09  1.1000E-09  1.1000E-09  1.1000E-09  2.0000E-09   0.000       0.000       0.000       0.000       0.000    
   5   8.5000E-09  1.1000E-09  1.1000E-09  1.1000E-09  1.1000E-09   0.000       0.000       0.000       0.000       0.000    
   6   8.5000E-09  5.2000E-09  2.1000E-09  1.1000E-09  1.5000E-09   0.000       0.000       0.000       0.000       0.000    
   7   8.5000E-09  5.2000E-09  2.1000E-09  1.2000E-09  2.0000E-09   0.000       0.000       0.000       0.000       0.000    
   8   5.0000E-10  5.2000E-09  2.1000E-09  1.2000E-09  5.0000E-09   0.000       0.000       0.000       0.000       0.000    
   9   5.0000E-10  5.2000E-09  2.1000E-09  1.2000E-09  5.0000E-09   0.000       0.000       0.000       0.000       0.000    
  10   5.0000E-10  5.2000E-09  2.1000E-09  1.2000E-09  5.8000E-09   0.000       0.000       0.000       0.000       0.000    
  11   1.0000E-10  1.1000E-09  1.1000E-09  1.2000E-09  5.0000E-09   0.000       0.000       0.000       0.000       0.000    
  12   1.1000E-09  1.1000E-09  1.1000E-09  1.1000E-09  2.0000E-09   0.000       0.000       0.000       0.000       0.000    
  13   1.1000E-09  2.2000E-09  2.2000E-09  2.1000E-09  1.0000E-09   0.000       0.000       0.000       0.000       0.000    
  14   2.0000E-10  5.5000E-09  5.5000E-09  5.2000E-09  1.0000E-09   0.000       0.000       0.000       0.000       0.000    
  15    0.000      8.8000E-09  8.8000E-09   0.000       0.000       0.000       0.000       0.000       0.000       0.000    

                  ET RATE =  7.500000E-08

 USING ET EXTINCTION DEPTH FROM PREVIOUS STRESS PERIOD. CURRENT PERIOD IS:      10

 USING EXTINCTION WATER CONTENT FROM PREVIOUS STRESS PERIOD. CURRENT PERIOD IS:      10

 USING AIR ENTRY PRESSURE FROM PREVIOUS STRESS PERIOD. CURRENT PERIOD IS:      10

 USING ROOT PRESSURE HEAD FROM PREVIOUS STRESS PERIOD. CURRENT PERIOD IS:      10

 USING ROOT ACTIVITY FROM PREVIOUS STRESS PERIOD. CURRENT PERIOD IS:      10

 PROCESSING AG STRESS PERIOD DATA

 READING AG STRESS PERIOD DATA

 READING IRRIGATION WELL

 END PROCESSING AG STRESS PERIOD DATA OPTIONS
 
 SOLVING FOR HEAD 
                                                   Max.-Head-Change                         Max.-Flux-Residual
  Residual-Control   Outer-Iter.   Inner-Iter.     Column Row Layer    Maximum-Head-Change  Column Row Layer    Maximum-Flux-Residual          L2-NORM 
          0                 1           2             5    8     1       0.1690070487E+00       5    8    1         0.9263007226E+01      0.1443703177E+02
          0                 2           2             5    8     1       0.4432124691E-01       5    8    1         0.2452812102E+01      0.2691165464E+01
          0                 3           2             5    8     1       0.1162293979E-01       5    8    1         0.6410061105E+00      0.6457312599E+00
          0                 4           1             5    8     1       0.3048060173E-02       5    8    1         0.1682254657E+00      0.1682546440E+00
          0                 5           1             5    8     1       0.7993401763E-03       5    8    1         0.4410827885E-01      0.4410993734E-01
          0                 6           1             5    8     1       0.2096234756E-03       5    8    1         0.1156759618E-01      0.1156794248E-01
          0                 7           1             5    8     1       0.5497284801E-04       5    8    1         0.3033535453E-02      0.3033629661E-02

    ------------------------------------------------
       NWT REQUIRED            7 OUTER ITERATIONS 
       AND A TOTAL OF         10 INNER ITERATIONS.
    ------------------------------------------------

 NO OUTPUT CONTROL FOR STRESS PERIOD   10   TIME STEP    1
 
 SOLVING FOR HEAD 
                                                   Max.-Head-Change                         Max.-Flux-Residual
  Residual-Control   Outer-Iter.   Inner-Iter.     Column Row Layer    Maximum-Head-Change  Column Row Layer    Maximum-Flux-Residual          L2-NORM 
          0                 1           2             5    8     1       0.1496088553E+00       5    8    1         0.8184235526E+01      0.1357384340E+02
          0                 2           2             5    8     1       0.1991438750E-01       5    8    1         0.1106539947E+01      0.1548222570E+01
          0                 3           2             5    8     1      -0.1936161556E-02       5    8    1        -0.1104086025E+00      0.1340543042E+00
          0                 4           1             5    8     1       0.1317504643E-03       5    8    1         0.7710085841E-02      0.8322626229E-02
          0                 5           1             5    8     1      -0.5236208998E-05       5    8    1        -0.3144523869E-03      0.3172346074E-03

    ------------------------------------------------
       NWT REQUIRED            5 OUTER ITERATIONS 
       AND A TOTAL OF          8 INNER ITERATIONS.
    ------------------------------------------------

 NO OUTPUT CONTROL FOR STRESS PERIOD   10   TIME STEP    2
 
 SOLVING FOR HEAD 
                                                   Max.-Head-Change                         Max.-Flux-Residual
  Residual-Control   Outer-Iter.   Inner-Iter.     Column Row Layer    Maximum-Head-Change  Column Row Layer    Maximum-Flux-Residual          L2-NORM 
          0                 1           2             5    8     1       0.1396430252E+00       5    8    1         0.7629338041E+01      0.1303559084E+02
          0                 2           2             5    8     1      -0.1357679808E-01       5    8    1        -0.7625608055E+00      0.1303303727E+01
          0                 3           2             5    8     1       0.9238624618E-03       5    8    1         0.5334033090E-01      0.9120801356E-01
          0                 4           1             5    8     1      -0.3671743271E-04       5    8    1        -0.2178989417E-02      0.3728825933E-02

    ------------------------------------------------
       NWT REQUIRED            4 OUTER ITERATIONS 
       AND A TOTAL OF          7 INNER ITERATIONS.
    ------------------------------------------------

 NO OUTPUT CONTROL FOR STRESS PERIOD   10   TIME STEP    3
 
 SOLVING FOR HEAD 
                                                   Max.-Head-Change                         Max.-Flux-Residual
  Residual-Control   Outer-Iter.   Inner-Iter.     Column Row Layer    Maximum-Head-Change  Column Row Layer    Maximum-Flux-Residual          L2-NORM 
          0                 1           2             5    8     1       0.1329360076E+00       5    8    1         0.7256590450E+01      0.1260756468E+02
          0                 2           2             5    8     1      -0.1292468309E-01       5    8    1        -0.7253021964E+00      0.1260517549E+01
          0                 3           2             5    8     1       0.8794881437E-03       5    8    1         0.5073411465E-01      0.8821446129E-01
          0                 4           1             5    8     1      -0.3495384562E-04       5    8    1        -0.2072521416E-02      0.3606508344E-02

    ------------------------------------------------
       NWT REQUIRED            4 OUTER ITERATIONS 
       AND A TOTAL OF          7 INNER ITERATIONS.
    ------------------------------------------------

 NO OUTPUT CONTROL FOR STRESS PERIOD   10   TIME STEP    4
 
 SOLVING FOR HEAD 
                                                   Max.-Head-Change                         Max.-Flux-Residual
  Residual-Control   Outer-Iter.   Inner-Iter.     Column Row Layer    Maximum-Head-Change  Column Row Layer    Maximum-Flux-Residual          L2-NORM 
          0                 1           2             5    8     1       0.1266605921E+00       5    8    1         0.6908070866E+01      0.1220539307E+02
          0                 2           2             5    8     1      -0.1231453472E-01       5    8    1        -0.6904655242E+00      0.1220315675E+01
          0                 3           2             5    8     1       0.8379694933E-03       5    8    1         0.4829731090E-01      0.8540170172E-01
          0                 4           1             5    8     1      -0.3330375292E-04       5    8    1        -0.1972974280E-02      0.3491542643E-02

    ------------------------------------------------
       NWT REQUIRED            4 OUTER ITERATIONS 
       AND A TOTAL OF          7 INNER ITERATIONS.
    ------------------------------------------------

 NO OUTPUT CONTROL FOR STRESS PERIOD   10   TIME STEP    5
 
 SOLVING FOR HEAD 
                                                   Max.-Head-Change                         Max.-Flux-Residual
  Residual-Control   Outer-Iter.   Inner-Iter.     Column Row Layer    Maximum-Head-Change  Column Row Layer    Maximum-Flux-Residual          L2-NORM 
          0                 1           2             5    8     1       0.1207845833E+00       5    8    1         0.6581959840E+01      0.1182692352E+02
          0                 2           2             5    8     1       0.7915733329E-02       5    8    1         0.4454461832E+00      0.1078840453E+01
          0                 3           2             5    8     1       0.2075718271E-02       5    8    1         0.1139688409E+00      0.1331742934E+00
          0                 4           1             5    8     1       0.5443108783E-03       5    8    1         0.3006390577E-01      0.3019078080E-01
          0                 5           1             5    8     1       0.1427334197E-03       5    8    1         0.7876081042E-02      0.7876625346E-02
          0                 6           1             5    8     1       0.3742866668E-04       5    8    1         0.2065284579E-02      0.2065428911E-02

    ------------------------------------------------
       NWT REQUIRED            6 OUTER ITERATIONS 
       AND A TOTAL OF          9 INNER ITERATIONS.
    ------------------------------------------------

 NO OUTPUT CONTROL FOR STRESS PERIOD   10   TIME STEP    6
 
 SOLVING FOR HEAD 
                                                   Max.-Head-Change                         Max.-Flux-Residual
  Residual-Control   Outer-Iter.   Inner-Iter.     Column Row Layer    Maximum-Head-Change  Column Row Layer    Maximum-Flux-Residual          L2-NORM 
          0                 1           2             5    8     1       0.1139016092E+00       5    8    1         0.6199490178E+01      0.1143770049E+02
          0                 2           2             5    8     1       0.2986756240E-01       5    8    1         0.1657430997E+01      0.1915957892E+01
          0                 3           2             5    8     1       0.7831879443E-02       5    8    1         0.4316551762E+00      0.4369390778E+00
          0                 4           1             5    8     1       0.2053689418E-02       5    8    1         0.1133670911E+00      0.1133971998E+00
          0                 5           1             5    8     1       0.5385225594E-03       5    8    1         0.2972008763E-01      0.2972096252E-01
          0                 6           1             5    8     1       0.1412125034E-03       5    8    1         0.7793514005E-02      0.7793656525E-02
          0                 7           1             5    8     1       0.3702903813E-04       5    8    1         0.2043625565E-02      0.2043665000E-02

    ------------------------------------------------
       NWT REQUIRED            7 OUTER ITERATIONS 
       AND A TOTAL OF         10 INNER ITERATIONS.
    ------------------------------------------------

 NO OUTPUT CONTROL FOR STRESS PERIOD   10   TIME STEP    7
 
 SOLVING FOR HEAD 
                                                   Max.-Head-Change                         Max.-Flux-Residual
  Residual-Control   Outer-Iter.   Inner-Iter.     Column Row Layer    Maximum-Head-Change  Column Row Layer    Maximum-Flux-Residual          L2-NORM 
          0                 1           2             5    8     1       0.1056100266E+00       5    8    1         0.5738195050E+01      0.1103265041E+02
          0                 2           2             5    8     1      -0.7444772956E-02       5    8    1        -0.4133285030E+00      0.1028940187E+01
          0                 3           2             5    8     1       0.5065977852E-03       5    8    1         0.2891179801E-01      0.7201683821E-01
          0                 4           1             5    8     1      -0.2013390803E-04       5    8    1        -0.1181049613E-02      0.2944883608E-02

    ------------------------------------------------
       NWT REQUIRED            4 OUTER ITERATIONS 
       AND A TOTAL OF          7 INNER ITERATIONS.
    ------------------------------------------------

 NO OUTPUT CONTROL FOR STRESS PERIOD   10   TIME STEP    8
 
 SOLVING FOR HEAD 
                                                   Max.-Head-Change                         Max.-Flux-Residual
  Residual-Control   Outer-Iter.   Inner-Iter.     Column Row Layer    Maximum-Head-Change  Column Row Layer    Maximum-Flux-Residual          L2-NORM 
          0                 1           2             5    8     1       0.1009202009E+00       5    8    1         0.5478689944E+01      0.1072012818E+02
          0                 2           2             5    8     1      -0.9811849452E-02       5    8    1        -0.5475908980E+00      0.1071851343E+01
          0                 3           2             5    8     1       0.6676696343E-03       5    8    1         0.3830331253E-01      0.7501489797E-01
          0                 4           1             5    8     1      -0.2653545575E-04       5    8    1        -0.1564704333E-02      0.3067113844E-02

    ------------------------------------------------
       NWT REQUIRED            4 OUTER ITERATIONS 
       AND A TOTAL OF          7 INNER ITERATIONS.
    ------------------------------------------------

 NO OUTPUT CONTROL FOR STRESS PERIOD   10   TIME STEP    9
 
 SOLVING FOR HEAD 
                                                   Max.-Head-Change                         Max.-Flux-Residual
  Residual-Control   Outer-Iter.   Inner-Iter.     Column Row Layer    Maximum-Head-Change  Column Row Layer    Maximum-Flux-Residual          L2-NORM 
          0                 1           2             4    8     1       0.1514912378E+00       4    8    1         0.8120827920E+01      0.1269611222E+02
          0                 2           2             4    8     1      -0.1472861197E-01       4    8    1        -0.8116826595E+00      0.1269218263E+01
          0                 3           2             4    8     1       0.1002217951E-02       4    8    1         0.5677539577E-01      0.8880679572E-01
          0                 4           1             4    8     1      -0.3983025277E-04       4    8    1        -0.2319260664E-02      0.3629601790E-02

    ------------------------------------------------
       NWT REQUIRED            4 OUTER ITERATIONS 
       AND A TOTAL OF          7 INNER ITERATIONS.
    ------------------------------------------------

 NO OUTPUT CONTROL FOR STRESS PERIOD   10   TIME STEP   10
 
 SOLVING FOR HEAD 
                                                   Max.-Head-Change                         Max.-Flux-Residual
  Residual-Control   Outer-Iter.   Inner-Iter.     Column Row Layer    Maximum-Head-Change  Column Row Layer    Maximum-Flux-Residual          L2-NORM 
          0                 1           2             5    7     1       0.1620965057E+00       5    7    1         0.8788209781E+01      0.1477737508E+02
          0                 2           2             5    7     1      -0.1575863421E-01       5    7    1        -0.8784140045E+00      0.1377666614E+01
          0                 3           2             4    8     1      -0.2899510467E-02       4    8    1        -0.1624786255E+00      0.1842899276E+00
          0                 4           2             4    8     1       0.1973301253E-03       4    8    1         0.1134864047E-01      0.1190435715E-01
          0                 5           1             4    8     1      -0.7844286177E-05       4    8    1        -0.4629858504E-03      0.4655498470E-03

    ------------------------------------------------
       NWT REQUIRED            5 OUTER ITERATIONS 
       AND A TOTAL OF          9 INNER ITERATIONS.
    ------------------------------------------------

 NO OUTPUT CONTROL FOR STRESS PERIOD   10   TIME STEP   11
 
 SOLVING FOR HEAD 
                                                   Max.-Head-Change                         Max.-Flux-Residual
  Residual-Control   Outer-Iter.   Inner-Iter.     Column Row Layer    Maximum-Head-Change  Column Row Layer    Maximum-Flux-Residual          L2-NORM 
          0                 1           2             5    7     1       0.1467063476E+00       5    7    1         0.7867672585E+01      0.1556766487E+02
          0                 2           2             4    8     1       0.3759031897E-01       4    8    1         0.2049401325E+01      0.2836316581E+01
          0                 3           2             4    8     1       0.1009463515E-01       4    8    1         0.5469004181E+00      0.6930834292E+00
          0                 4           2             4    8     1       0.2710830213E-02       4    8    1         0.1470732034E+00      0.1838159668E+00
          0                 5           2             4    8     1       0.7279640218E-03       4    8    1         0.3948745925E-01      0.4893086419E-01
          0                 6           2             4    8     1       0.1954849915E-03       4    8    1         0.1060419011E-01      0.1303446772E-01
          0                 7           1             4    8     1       0.5249438488E-04       4    8    1         0.2847602631E-02      0.3472953913E-02

    ------------------------------------------------
       NWT REQUIRED            7 OUTER ITERATIONS 
       AND A TOTAL OF         13 INNER ITERATIONS.
    ------------------------------------------------

 NO OUTPUT CONTROL FOR STRESS PERIOD   10   TIME STEP   12
 
 SOLVING FOR HEAD 
                                                   Max.-Head-Change                         Max.-Flux-Residual
  Residual-Control   Outer-Iter.   Inner-Iter.     Column Row Layer    Maximum-Head-Change  Column Row Layer    Maximum-Flux-Residual          L2-NORM 
          0                 1           2             5    7     1       0.1389881660E+00       5    7    1         0.7437844770E+01      0.1510265878E+02
          0                 2           2             5    6     1      -0.1259812992E-01       5    6    1        -0.7222990799E+00      0.1197344355E+01
          0                 3           2             5    8     1       0.1621631318E-02       5    8    1         0.9047625928E-01      0.1289401412E+00
          0                 4           1             5    8     1       0.4252116603E-03       5    8    1         0.2340243559E-01      0.2396564537E-01
          0                 5           1             5    8     1       0.1114960194E-03       5    8    1         0.6155792718E-02      0.6158024163E-02
          0                 6           1             5    8     1       0.2923568920E-04       5    8    1         0.1613384117E-02      0.1613458571E-02

    ------------------------------------------------
       NWT REQUIRED            6 OUTER ITERATIONS 
       AND A TOTAL OF          9 INNER ITERATIONS.
    ------------------------------------------------

 NO OUTPUT CONTROL FOR STRESS PERIOD   10   TIME STEP   13
 
 SOLVING FOR HEAD 
                                                   Max.-Head-Change                         Max.-Flux-Residual
  Residual-Control   Outer-Iter.   Inner-Iter.     Column Row Layer    Maximum-Head-Change  Column Row Layer    Maximum-Flux-Residual          L2-NORM 
          0                 1           2             5    7     1       0.1338549716E+00       5    7    1         0.7157150624E+01      0.1466239853E+02
          0                 2           2             5    8     1       0.2423235049E-01       5    8    1         0.1358129888E+01      0.1937285116E+01
          0                 3           2             5    8     1       0.6353890902E-02       5    8    1         0.3492732094E+00      0.3625579131E+00
          0                 4           1             5    8     1       0.1666051769E-02       5    8    1         0.9201231604E-01      0.9208617425E-01
          0                 5           1             5    8     1       0.4368547596E-03       5    8    1         0.2411004394E-01      0.2411091652E-01
          0                 6           1             5    8     1       0.1145475504E-03       5    8    1         0.6321587541E-02      0.6321896729E-02
          0                 7           1             5    8     1       0.3003547903E-04       5    8    1         0.1657587482E-02      0.1657669023E-02

    ------------------------------------------------
       NWT REQUIRED            7 OUTER ITERATIONS 
       AND A TOTAL OF         10 INNER ITERATIONS.
    ------------------------------------------------

 NO OUTPUT CONTROL FOR STRESS PERIOD   10   TIME STEP   14
 
 SOLVING FOR HEAD 
                                                   Max.-Head-Change                         Max.-Flux-Residual
  Residual-Control   Outer-Iter.   Inner-Iter.     Column Row Layer    Maximum-Head-Change  Column Row Layer    Maximum-Flux-Residual          L2-NORM 
          0                 1           2             5    7     1       0.1313009459E+00       5    7    1         0.6991490867E+01      0.1490570986E+02
          0                 2           2             4    7     1       0.2974528882E-01       4    7    1         0.1641243820E+01      0.2230489865E+01
          0                 3           2             5    6     1       0.3946904946E-02       5    6    1         0.2167790657E+00      0.2712819506E+00
          0                 4           2             5    6     1       0.1035316510E-02       5    6    1         0.5716557841E-01      0.5886396639E-01
          0                 5           2             5    6     1       0.2715747467E-03       5    6    1         0.1498231651E-01      0.1501211637E-01
          0                 6           1             5    6     1       0.7123702016E-04       5    6    1         0.3930171035E-02      0.3930552918E-02

    ------------------------------------------------
       NWT REQUIRED            6 OUTER ITERATIONS 
       AND A TOTAL OF         11 INNER ITERATIONS.
    ------------------------------------------------

 NO OUTPUT CONTROL FOR STRESS PERIOD   10   TIME STEP   15
 
 SOLVING FOR HEAD 
                                                   Max.-Head-Change                         Max.-Flux-Residual
  Residual-Control   Outer-Iter.   Inner-Iter.     Column Row Layer    Maximum-Head-Change  Column Row Layer    Maximum-Flux-Residual          L2-NORM 
          0                 1           2             4    7     1       0.1568591646E+00       4    7    1         0.8307371046E+01      0.1573759692E+02
          0                 2           2             5    6     1       0.3067344376E-01       5    6    1         0.1706994033E+01      0.2233904196E+01
          0                 3           2             5    6     1       0.2533191622E-02       5    6    1         0.1387566253E+00      0.1718035517E+00
          0                 4           2             5    6     1      -0.2462827059E-03       5    6    1        -0.1393730456E-01      0.1451725276E-01
          0                 5           1             5    6     1       0.1675886762E-04       5    6    1         0.9776377844E-03      0.9789165691E-03

    ------------------------------------------------
       NWT REQUIRED            5 OUTER ITERATIONS 
       AND A TOTAL OF          9 INNER ITERATIONS.
    ------------------------------------------------

 NO OUTPUT CONTROL FOR STRESS PERIOD   10   TIME STEP   16
 
 SOLVING FOR HEAD 
                                                   Max.-Head-Change                         Max.-Flux-Residual
  Residual-Control   Outer-Iter.   Inner-Iter.     Column Row Layer    Maximum-Head-Change  Column Row Layer    Maximum-Flux-Residual          L2-NORM 
          0                 1           2             4    7     1       0.1539569222E+00       4    7    1         0.8151138724E+01      0.1536745898E+02
          0                 2           2             4    8     1       0.1899834753E-01       4    8    1         0.1046469656E+01      0.1761614346E+01
          0                 3           2             4    8     1       0.5101349799E-02       4    8    1         0.2756571783E+00      0.3436708895E+00
          0                 4           2             4    8     1       0.1369787445E-02       4    8    1         0.7435289155E-01      0.8941381901E-01
          0                 5           2             4    8     1       0.3678046213E-03       4    8    1         0.1995149111E-01      0.2380297360E-01
          0                 6           1             4    8     1       0.9875919922E-04       4    8    1         0.5357290667E-02      0.6347847946E-02

    ------------------------------------------------
       NWT REQUIRED            6 OUTER ITERATIONS 
       AND A TOTAL OF         11 INNER ITERATIONS.
    ------------------------------------------------

 NO OUTPUT CONTROL FOR STRESS PERIOD   10   TIME STEP   17
 
 SOLVING FOR HEAD 
                                                   Max.-Head-Change                         Max.-Flux-Residual
  Residual-Control   Outer-Iter.   Inner-Iter.     Column Row Layer    Maximum-Head-Change  Column Row Layer    Maximum-Flux-Residual          L2-NORM 
          0                 1           2             4    7     1       0.1520291914E+00       4    7    1         0.8051880563E+01      0.1501828490E+02
          0                 2           2             5    7     1       0.3254519205E-01       5    7    1         0.1824362264E+01      0.2751708334E+01
          0                 3           2             4    8     1      -0.2989152535E-02       4    8    1        -0.1679765799E+00      0.2229857502E+00
          0                 4           2             5    7     1      -0.2139751102E-03       5    7    1        -0.1207452867E-01      0.1715932526E-01
          0                 5           1             5    7     1       0.1456039173E-04       5    7    1         0.8494188660E-03      0.9749625609E-03

    ------------------------------------------------
       NWT REQUIRED            5 OUTER ITERATIONS 
       AND A TOTAL OF          9 INNER ITERATIONS.
    ------------------------------------------------

 NO OUTPUT CONTROL FOR STRESS PERIOD   10   TIME STEP   18
 
 SOLVING FOR HEAD 
                                                   Max.-Head-Change                         Max.-Flux-Residual
  Residual-Control   Outer-Iter.   Inner-Iter.     Column Row Layer    Maximum-Head-Change  Column Row Layer    Maximum-Flux-Residual          L2-NORM 
          0                 1           2             4    7     1       0.1515031143E+00       4    7    1         0.7967761205E+01      0.1621694001E+02
          0                 2           2             4    7     1       0.1885670389E-01       4    7    1         0.1045011794E+01      0.1586098398E+01
          0                 3           2             4    7     1       0.5032618016E-02       4    7    1         0.2730650509E+00      0.2865531000E+00
          0                 4           1             4    7     1       0.1343476002E-02       4    7    1         0.7324711503E-01      0.7349111790E-01
          0                 5           1             4    7     1       0.3587410636E-03       4    7    1         0.1953995441E-01      0.1956930062E-01
          0                 6           1             4    7     1       0.9582006832E-04       4    7    1         0.5217829468E-02      0.5221785474E-02

    ------------------------------------------------
       NWT REQUIRED            6 OUTER ITERATIONS 
       AND A TOTAL OF          9 INNER ITERATIONS.
    ------------------------------------------------

 NO OUTPUT CONTROL FOR STRESS PERIOD   10   TIME STEP   19
 
 SOLVING FOR HEAD 
                                                   Max.-Head-Change                         Max.-Flux-Residual
  Residual-Control   Outer-Iter.   Inner-Iter.     Column Row Layer    Maximum-Head-Change  Column Row Layer    Maximum-Flux-Residual          L2-NORM 
          0                 1           2             4    7     1       0.1478877641E+00       4    7    1         0.7773009716E+01      0.1596926121E+02
          0                 2           2             4    6     1       0.3854480093E-01       4    6    1         0.2089805413E+01      0.2790559869E+01
          0                 3           2             4    6     1       0.1027514094E-01       4    6    1         0.5618868652E+00      0.5856063319E+00
          0                 4           2             4    6     1       0.2739102208E-02       4    6    1         0.1492665621E+00      0.1496491989E+00
          0                 5           2             4    6     1       0.7301791348E-03       4    6    1         0.3982695169E-01      0.3982850245E-01
          0                 6           2             4    6     1       0.1946482926E-03       4    6    1         0.1061541038E-01      0.1061556561E-01
          0                 7           1             4    6     1       0.5188858317E-04       4    6    1         0.2829878836E-02      0.2829905249E-02

    ------------------------------------------------
       NWT REQUIRED            7 OUTER ITERATIONS 
       AND A TOTAL OF         13 INNER ITERATIONS.
    ------------------------------------------------

 NO OUTPUT CONTROL FOR STRESS PERIOD   10   TIME STEP   20
 
 SOLVING FOR HEAD 
                                                   Max.-Head-Change                         Max.-Flux-Residual
  Residual-Control   Outer-Iter.   Inner-Iter.     Column Row Layer    Maximum-Head-Change  Column Row Layer    Maximum-Flux-Residual          L2-NORM 
          0                 1           2             4    7     1       0.1452437953E+00       4    7    1         0.7635608828E+01      0.1561999326E+02
          0                 2           2             4    7     1      -0.1410920391E-01       4    7    1        -0.7631665669E+00      0.1458696938E+01
          0                 3           2             5    6     1      -0.2029039632E-02       5    6    1        -0.1165049735E+00      0.1708606385E+00
          0                 4           1             5    8     1      -0.3874793600E-03       5    8    1        -0.2193276747E-01      0.2234775767E-01
          0                 5           1             5    8     1      -0.1093909361E-03       5    8    1        -0.6207830119E-02      0.6208864472E-02
          0                 6           1             5    8     1      -0.3088186904E-04       5    8    1        -0.1752282215E-02      0.1752306622E-02

    ------------------------------------------------
       NWT REQUIRED            6 OUTER ITERATIONS 
       AND A TOTAL OF          9 INNER ITERATIONS.
    ------------------------------------------------

 NO OUTPUT CONTROL FOR STRESS PERIOD   10   TIME STEP   21
 
 SOLVING FOR HEAD 
                                                   Max.-Head-Change                         Max.-Flux-Residual
  Residual-Control   Outer-Iter.   Inner-Iter.     Column Row Layer    Maximum-Head-Change  Column Row Layer    Maximum-Flux-Residual          L2-NORM 
          0                 1           2             4    7     1       0.1435231163E+00       4    7    1         0.7547015779E+01      0.1533738154E+02
          0                 2           2             5    6     1       0.2555178742E-01       5    6    1         0.1430314523E+01      0.2302612214E+01
          0                 3           2             5    6     1       0.6703732213E-02       5    6    1         0.3684245953E+00      0.4849216137E+00
          0                 4           2             5    6     1       0.1758799292E-02       5    6    1         0.9708785875E-01      0.1252474884E+00
          0                 5           2             5    6     1       0.4614405781E-03       5    6    1         0.2545496869E-01      0.3282237526E-01
          0                 6           2             5    6     1       0.1210641094E-03       5    6    1         0.6678572230E-02      0.8610845413E-02
          0                 7           1             5    6     1       0.3176252818E-04       5    6    1         0.1752186072E-02      0.2258933475E-02

    ------------------------------------------------
       NWT REQUIRED            7 OUTER ITERATIONS 
       AND A TOTAL OF         13 INNER ITERATIONS.
    ------------------------------------------------

 NO OUTPUT CONTROL FOR STRESS PERIOD   10   TIME STEP   22
 
 SOLVING FOR HEAD 
                                                   Max.-Head-Change                         Max.-Flux-Residual
  Residual-Control   Outer-Iter.   Inner-Iter.     Column Row Layer    Maximum-Head-Change  Column Row Layer    Maximum-Flux-Residual          L2-NORM 
          0                 1           2             4    7     1       0.1418533934E+00       4    7    1         0.7459126658E+01      0.1503771085E+02
          0                 2           2             5    6     1       0.2518220272E-01       5    6    1         0.1391321443E+01      0.2281483353E+01
          0                 3           2             5    8     1       0.5524996597E-02       5    8    1         0.2995046546E+00      0.4201216246E+00
          0                 4           2             5    8     1       0.1485642047E-02       5    8    1         0.8051192649E-01      0.1077003350E+00
          0                 5           2             5    8     1       0.3996886490E-03       5    8    1         0.2165191167E-01      0.2914630932E-01
          0                 6           1             5    8     1       0.1075839054E-03       5    8    1         0.5825948984E-02      0.7913114997E-02
          0                 7           1             5    8     1       0.2897231664E-04       5    8    1         0.1568375180E-02      0.2149203218E-02

    ------------------------------------------------
       NWT REQUIRED            7 OUTER ITERATIONS 
       AND A TOTAL OF         12 INNER ITERATIONS.
    ------------------------------------------------

 NO OUTPUT CONTROL FOR STRESS PERIOD   10   TIME STEP   23
 
 SOLVING FOR HEAD 
                                                   Max.-Head-Change                         Max.-Flux-Residual
  Residual-Control   Outer-Iter.   Inner-Iter.     Column Row Layer    Maximum-Head-Change  Column Row Layer    Maximum-Flux-Residual          L2-NORM 
          0                 1           2             4    7     1       0.1409276907E+00       4    7    1         0.7414311403E+01      0.1473426125E+02
          0                 2           2             5    7     1       0.2971027096E-01       5    7    1         0.1631331510E+01      0.2711225966E+01
          0                 3           2             4    8     1       0.8058340735E-02       4    8    1         0.4330835409E+00      0.6940916197E+00
          0                 4           2             5    7     1       0.2109945292E-02       5    7    1         0.1150770489E+00      0.1650269132E+00
          0                 5           2             5    7     1       0.5626820075E-03       5    7    1         0.3067570168E-01      0.4047420131E-01
          0                 6           2             5    7     1       0.1501308506E-03       5    7    1         0.8181889235E-02      0.1071962542E-01
          0                 7           1             5    7     1       0.4007636983E-04       5    7    1         0.2183314625E-02      0.2890542908E-02

    ------------------------------------------------
       NWT REQUIRED            7 OUTER ITERATIONS 
       AND A TOTAL OF         13 INNER ITERATIONS.
    ------------------------------------------------

 NO OUTPUT CONTROL FOR STRESS PERIOD   10   TIME STEP   24
 
 SOLVING FOR HEAD 
                                                   Max.-Head-Change                         Max.-Flux-Residual
  Residual-Control   Outer-Iter.   Inner-Iter.     Column Row Layer    Maximum-Head-Change  Column Row Layer    Maximum-Flux-Residual          L2-NORM 
          0                 1           2             4    7     1       0.1384546433E+00       4    7    1         0.7287005008E+01      0.1442738693E+02
          0                 2           2             4    6     1       0.2724300067E-01       4    6    1         0.1474724669E+01      0.2238115358E+01
          0                 3           2             4    6     1       0.7261984190E-02       4    6    1         0.3974392592E+00      0.4252378077E+00
          0                 4           2             4    6     1       0.1935769557E-02       4    6    1         0.1054706917E+00      0.1059277081E+00
          0                 5           2             4    6     1       0.5160036043E-03       4    6    1         0.2814743437E-01      0.2814937796E-01
          0                 6           2             4    6     1       0.1375472043E-03       4    6    1         0.7501701326E-02      0.7501819281E-02
          0                 7           1             4    6     1       0.3666492748E-04       4    6    1         0.1999728489E-02      0.1999745533E-02

    ------------------------------------------------
       NWT REQUIRED            7 OUTER ITERATIONS 
       AND A TOTAL OF         13 INNER ITERATIONS.
    ------------------------------------------------

 NO OUTPUT CONTROL FOR STRESS PERIOD   10   TIME STEP   25
 
 SOLVING FOR HEAD 
                                                   Max.-Head-Change                         Max.-Flux-Residual
  Residual-Control   Outer-Iter.   Inner-Iter.     Column Row Layer    Maximum-Head-Change  Column Row Layer    Maximum-Flux-Residual          L2-NORM 
          0                 1           2             4    7     1       0.1356467032E+00       4    7    1         0.7139221088E+01      0.1414384389E+02
          0                 2           2             4    6     1       0.1860214457E-01       4    6    1         0.1032237537E+01      0.1627515836E+01
          0                 3           2             4    6     1      -0.1808563724E-02       4    6    1        -0.1026629880E+00      0.1355059344E+00
          0                 4           2             4    6     1       0.1230679605E-03       4    6    1         0.7146740659E-02      0.8027047933E-02
          0                 5           1             4    6     1      -0.4891108489E-05       4    6    1        -0.2905838967E-03      0.2947116920E-03

    ------------------------------------------------
       NWT REQUIRED            5 OUTER ITERATIONS 
       AND A TOTAL OF          9 INNER ITERATIONS.
    ------------------------------------------------

 NO OUTPUT CONTROL FOR STRESS PERIOD   10   TIME STEP   26
 
 SOLVING FOR HEAD 
                                                   Max.-Head-Change                         Max.-Flux-Residual
  Residual-Control   Outer-Iter.   Inner-Iter.     Column Row Layer    Maximum-Head-Change  Column Row Layer    Maximum-Flux-Residual          L2-NORM 
          0                 1           2             4    7     1       0.1342855499E+00       4    7    1         0.7070436610E+01      0.1389569247E+02
          0                 2           2             4    7     1      -0.1305555407E-01       4    7    1        -0.7066815988E+00      0.1388867053E+01
          0                 3           2             4    7     1       0.8883605398E-03       4    7    1         0.4943019256E-01      0.9715105987E-01
          0                 4           1             4    7     1      -0.3530440951E-04       4    7    1        -0.2019165583E-02      0.3968756672E-02

    ------------------------------------------------
       NWT REQUIRED            4 OUTER ITERATIONS 
       AND A TOTAL OF          7 INNER ITERATIONS.
    ------------------------------------------------

 NO OUTPUT CONTROL FOR STRESS PERIOD   10   TIME STEP   27
 
 SOLVING FOR HEAD 
                                                   Max.-Head-Change                         Max.-Flux-Residual
  Residual-Control   Outer-Iter.   Inner-Iter.     Column Row Layer    Maximum-Head-Change  Column Row Layer    Maximum-Flux-Residual          L2-NORM 
          0                 1           2             4    7     1       0.1324638962E+00       4    7    1         0.6977178679E+01      0.1318737443E+02
          0                 2           2             4    7     1      -0.1287845578E-01       4    7    1        -0.6973611224E+00      0.1318076719E+01
          0                 3           2             4    7     1       0.8763102906E-03       4    7    1         0.4877826274E-01      0.9220019968E-01
          0                 4           1             4    7     1      -0.3482554592E-04       4    7    1        -0.1992535975E-02      0.3766572269E-02

    ------------------------------------------------
       NWT REQUIRED            4 OUTER ITERATIONS 
       AND A TOTAL OF          7 INNER ITERATIONS.
    ------------------------------------------------

 NO OUTPUT CONTROL FOR STRESS PERIOD   10   TIME STEP   28
 
 SOLVING FOR HEAD 
                                                   Max.-Head-Change                         Max.-Flux-Residual
  Residual-Control   Outer-Iter.   Inner-Iter.     Column Row Layer    Maximum-Head-Change  Column Row Layer    Maximum-Flux-Residual          L2-NORM 
          0                 1           2             4    7     1       0.1306226995E+00       4    7    1         0.6882527147E+01      0.1290759688E+02
          0                 2           2             4    6     1      -0.1060454504E-01       4    6    1        -0.5973281628E+00      0.1088232793E+01
          0                 3           2             4    7     1       0.1898422026E-02       4    7    1         0.1017861114E+00      0.1342283498E+00
          0                 4           2             4    7     1       0.5072195557E-03       4    7    1         0.2768267246E-01      0.3134752775E-01
          0                 5           1             4    7     1       0.1355159895E-03       4    7    1         0.7377750371E-02      0.8436529359E-02
          0                 6           1             4    7     1       0.3620574574E-04       4    7    1         0.1971258191E-02      0.2284169348E-02

    ------------------------------------------------
       NWT REQUIRED            6 OUTER ITERATIONS 
       AND A TOTAL OF         10 INNER ITERATIONS.
    ------------------------------------------------

 NO OUTPUT CONTROL FOR STRESS PERIOD   10   TIME STEP   29
 
 SOLVING FOR HEAD 
                                                   Max.-Head-Change                         Max.-Flux-Residual
  Residual-Control   Outer-Iter.   Inner-Iter.     Column Row Layer    Maximum-Head-Change  Column Row Layer    Maximum-Flux-Residual          L2-NORM 
          0                 1           2             4    7     1       0.1277038647E+00       4    7    1         0.6728060167E+01      0.1263211181E+02
          0                 2           2             4    7     1       0.3477520641E-01       4    7    1         0.1880536197E+01      0.2547847640E+01
          0                 3           2             4    7     1       0.9439826933E-02       4    7    1         0.5074748925E+00      0.6676977681E+00
          0                 4           2             5    6     1       0.1570654830E-02       5    6    1         0.8573774813E-01      0.1210394888E+00
          0                 5           2             5    6     1       0.4184113313E-03       5    6    1         0.2282820095E-01      0.3156690196E-01
          0                 6           2             5    6     1       0.1114829834E-03       5    6    1         0.6081942832E-02      0.8444814408E-02
          0                 7           1             5    6     1       0.2970937013E-04       5    6    1         0.1620563188E-02      0.2260828749E-02

    ------------------------------------------------
       NWT REQUIRED            7 OUTER ITERATIONS 
       AND A TOTAL OF         13 INNER ITERATIONS.
    ------------------------------------------------

 NO OUTPUT CONTROL FOR STRESS PERIOD   10   TIME STEP   30



 STREAM LISTING     PERIOD     10   STEP       30

 LAYER ROW COL. STREAM  RCH.  FLOW INTO     FLOW TO   FLOW OUT OF   OVRLND.     DIRECT     STREAM       STREAM     STREAM     STREAM   STREAMBED  STREAMBED
                SEG.NO.  NO.  STRM. RCH.    AQUIFER    STRM. RCH.    RUNOFF     PRECIP       ET          HEAD       DEPTH      WIDTH   CONDCTNC.   GRADIENT

   1    1    1     1     1    4.7000E+01  3.2684E-01   4.6673E+01  0.000E+00  0.000E+00  0.000E+00  1.09443E+03  1.380E+00  1.658E+01  7.462E-02  1.460E+00
   1    2    2     1     2    4.6673E+01  5.0637E-01   4.6166E+01  0.000E+00  0.000E+00  0.000E+00  1.08944E+03  1.377E+00  1.653E+01  1.157E-01  1.459E+00
   1    3    3     1     3    4.6166E+01  4.3205E-01   4.5734E+01  0.000E+00  0.000E+00  0.000E+00  1.08379E+03  1.374E+00  1.646E+01  9.878E-02  1.458E+00
   1    3    4     1     4    4.5734E+01  3.9802E-01   4.5336E+01  0.000E+00  0.000E+00  0.000E+00  1.07878E+03  1.371E+00  1.641E+01  9.105E-02  1.457E+00
   1    4    5     2     1    4.3336E+01  3.6469E-01   4.2972E+01  0.000E+00  0.000E+00  0.000E+00  1.07361E+03  1.676E+00  1.200E+01  7.800E-02  1.559E+00
   1    5    6     2     2    4.2972E+01  2.8008E-01   4.2692E+01  0.000E+00  0.000E+00  0.000E+00  1.06818E+03  1.668E+00  1.200E+01  6.000E-02  1.556E+00
   1    6    6     2     3    4.2692E+01  2.7969E-01   4.2412E+01  0.000E+00  0.000E+00  0.000E+00  1.06345E+03  1.661E+00  1.200E+01  6.000E-02  1.554E+00
   1    7    6     2     4    4.2412E+01  2.7930E-01   4.2133E+01  0.000E+00  0.000E+00  0.000E+00  1.05873E+03  1.655E+00  1.200E+01  6.000E-02  1.552E+00
   1    8    6     2     5    4.2133E+01  2.7890E-01   4.1854E+01  0.000E+00  0.000E+00  0.000E+00  1.05401E+03  1.648E+00  1.200E+01  6.000E-02  1.549E+00
   1    3    5     3     1    2.0000E+00  2.8252E-01   1.7175E+00  0.000E+00  0.000E+00  0.000E+00  1.07555E+03  1.909E+00  9.636E+00  7.227E-02  1.955E+00
   1    3    6     3     2    1.7175E+00  2.4905E-01   1.4684E+00  0.000E+00  0.000E+00  0.000E+00  1.07264E+03  1.727E+00  8.909E+00  6.682E-02  1.864E+00
   1    3    7     3     3    1.4684E+00  1.9718E-01   1.2712E+00  0.000E+00  0.000E+00  0.000E+00  1.06987E+03  1.555E+00  8.218E+00  5.547E-02  1.777E+00
   1    4    8     3     4    1.2712E+00  2.2567E-01   1.0456E+00  0.000E+00  0.000E+00  0.000E+00  1.06682E+03  1.364E+00  7.455E+00  6.709E-02  1.682E+00
   1    5    8     3     5    1.0456E+00  1.5790E-01   8.8768E-01  0.000E+00  0.000E+00  0.000E+00  1.06362E+03  1.164E+00  6.655E+00  4.991E-02  1.582E+00
   1    6    8     3     6    8.8768E-01  5.5980E-02   8.3170E-01  0.000E+00  0.000E+00  0.000E+00  1.06158E+03  1.036E+00  6.145E+00  1.844E-02  1.518E+00
   1    5   10     4     1    1.0000E+01  9.0919E-02   9.9091E+00  0.000E+00  0.000E+00  0.000E+00  1.07836E+03  6.368E-01  1.000E+01  2.500E-02  1.212E+00
   1    5    9     4     2    9.9091E+00  1.8158E-01   9.7275E+00  0.000E+00  0.000E+00  0.000E+00  1.07154E+03  6.315E-01  1.000E+01  5.000E-02  1.211E+00
   1    6    8     4     3    9.7275E+00  1.2689E-01   9.6006E+00  0.000E+00  0.000E+00  0.000E+00  1.06381E+03  6.256E-01  1.000E+01  3.500E-02  1.209E+00
   1    6    8     5     1    1.0432E+01  2.2686E-01   1.0205E+01  0.000E+00  0.000E+00  0.000E+00  1.05868E+03  6.790E-01  1.542E+01  6.166E-02  1.226E+00
   1    7    7     5     2    1.0205E+01  2.7894E-01   9.9265E+00  0.000E+00  0.000E+00  0.000E+00  1.05417E+03  6.732E-01  1.519E+01  7.594E-02  1.224E+00
   1    8    7     5     3    9.9265E+00  1.9221E-01   9.7343E+00  0.000E+00  0.000E+00  0.000E+00  1.04992E+03  6.676E-01  1.497E+01  5.241E-02  1.223E+00
   1    8    6     5     4    9.7343E+00  1.3577E-01   9.5985E+00  0.000E+00  0.000E+00  0.000E+00  1.04691E+03  6.637E-01  1.482E+01  3.706E-02  1.221E+00
   1    9    6     6     1    5.1452E+01  2.9278E-01   5.1159E+01  0.000E+00  0.000E+00  0.000E+00  1.04461E+03  1.880E+00  1.200E+01  6.000E-02  1.627E+00
   1   10    7     6     2    5.1159E+01  2.9239E-01   5.0867E+01  0.000E+00  0.000E+00  0.000E+00  1.04005E+03  1.873E+00  1.200E+01  6.000E-02  1.624E+00
   1   11    7     6     3    5.0867E+01  2.9200E-01   5.0575E+01  0.000E+00  0.000E+00  0.000E+00  1.03550E+03  1.867E+00  1.200E+01  6.000E-02  1.622E+00
   1   12    7     6     4    5.0575E+01  2.9162E-01   5.0283E+01  0.000E+00  0.000E+00  0.000E+00  1.03095E+03  1.860E+00  1.200E+01  6.000E-02  1.620E+00
   1   13    7     6     5    5.0283E+01  1.2614E-02   5.0271E+01  0.000E+00  0.000E+00  0.000E+00  1.02777E+03  1.857E+00  1.200E+01  2.400E-02  1.752E-01
   1   14    9     7     1    1.5000E+02  1.3307E+00   1.4867E+02  0.000E+00  0.000E+00  0.000E+00  1.03987E+03  2.288E+00  5.529E+01  5.593E-01  7.931E-01
   1   13    8     7     2    1.4867E+02  1.7940E+00   1.4688E+02  0.000E+00  0.000E+00  0.000E+00  1.03478E+03  2.279E+00  5.526E+01  6.148E-01  9.727E-01
   1   13    7     7     3    1.4688E+02  1.3682E+00   1.4551E+02  0.000E+00  0.000E+00  0.000E+00  1.02969E+03  2.271E+00  5.522E+01  5.585E-01  8.166E-01
   1   13    6     8     1    1.9578E+02  9.1833E-01   1.9486E+02  0.000E+00  0.000E+00  0.000E+00  1.02498E+03  3.110E+00  4.509E+01  4.595E-01  6.661E-01
   1   13    5     8     2    1.9486E+02  1.4306E-01   1.9472E+02  0.000E+00  0.000E+00  0.000E+00  1.01873E+03  3.107E+00  4.505E+01  4.591E-01  1.039E-01
   1   13    4     8     3    1.9472E+02 -2.4979E+00   1.9721E+02  0.000E+00  0.000E+00  0.000E+00  1.01249E+03  3.114E+00  4.515E+01  4.601E+00 -1.810E-01
   1   13    3     8     4    1.9721E+02 -3.6188E+00   2.0083E+02  0.000E+00  0.000E+00  0.000E+00  1.00626E+03  3.132E+00  4.541E+01  4.628E+00 -2.607E-01
   1   13    2     8     5    2.0083E+02 -2.5918E+00   2.0342E+02  0.000E+00  0.000E+00  0.000E+00  1.00003E+03  3.150E+00  4.568E+01  4.655E+00 -1.856E-01
   1   13    1     8     6    2.0342E+02 -2.0171E+00   2.0544E+02  0.000E+00  0.000E+00  0.000E+00  9.95039E+02  3.164E+00  4.587E+01  2.805E+00 -2.397E-01





UNSATURATED ZONE PACKAGE VOLUMETRIC BUDGET FOR  TIME STEP    30 STRESS PERIOD   10
  ------------------------------------------------------------------------------



     CUMULATIVE VOLUMES      L**3       RATES FOR THIS TIME STEP      L**3/T
     ------------------                 ------------------------

           IN:                                      IN:
           ---                                      ---
        INFILTRATION =   574882964.6731          INFILTRATION =          15.3575

          OUT:                                     OUT:
          ----                                     ----
              UZF ET =   485399611.9382                UZF ET =          15.3575
        UZF RECHARGE =    53907154.9391          UZF RECHARGE =          31.5664

            IN - OUT =    35576197.7958              IN - OUT =         -31.5664

          STORAGE:                                 STORAGE:
          --------                                 --------
      STORAGE CHANGE =    35576765.4753        STORAGE CHANGE =         -31.5664

 PERCENT DISCREPANCY IS DIFFERENCE BETWEEN IN-OUT MINUS CHANGE IN STORAGE
 DIVIDED BY THE AVERAGE OF IN AND OUT TIMES 100

 PERCENT DISCREPANCY =          -0.00     PERCENT DISCREPANCY =           0.00






1
  VOLUMETRIC BUDGET FOR AGRICULTURAL FIELDS AT TIME STEP   30, STRESS PERIOD  10
  ------------------------------------------------------------------------------

     CUMULATIVE VOLUMES      L**3       RATES FOR THIS TIME STEP      L**3/T
     ------------------                 ------------------------

           IN:                                      IN:
           ---                                      ---
               AG WELLS  =   470484032.0000                 AG WELLS  =          10.9500
      DIVERSION SEGMENTS =           0.0000        DIVERSION SEGMENTS =           0.0000
           GW IRRIGATION =           0.0000             GW IRRIGATION =           0.0000
           SW IRRIGATION =           0.0000             SW IRRIGATION =           0.0000
        SYSTEM LOSSES GW =           0.0000          SYSTEM LOSSES GW =           0.0000
        SYSTEM LOSSES SW =           0.0000          SYSTEM LOSSES SW =           0.0000

                TOTAL IN =   470484032.0000                  TOTAL IN =          10.9500

          OUT:                                     OUT:
          ----                                     ----
               AG WELLS  =           0.0000                 AG WELLS  =           0.0000
      DIVERSION SEGMENTS =           0.0000        DIVERSION SEGMENTS =           0.0000
           GW IRRIGATION =   470484032.0000             GW IRRIGATION =          10.9500
           SW IRRIGATION =           0.0000             SW IRRIGATION =           0.0000
        SYSTEM LOSSES GW =           0.0000          SYSTEM LOSSES GW =           0.0000
        SYSTEM LOSSES SW =           0.0000          SYSTEM LOSSES SW =           0.0000

               TOTAL OUT =   470484032.0000                 TOTAL OUT =          10.9500

                IN - OUT =           0.0000                  IN - OUT =           0.0000

     PERCENT DISCREPANCY =           0.00         PERCENT DISCREPANCY =           0.00



1
  VOLUMETRIC BUDGET FOR ENTIRE MODEL AT END OF TIME STEP   30, STRESS PERIOD  10
  ------------------------------------------------------------------------------

     CUMULATIVE VOLUMES      L**3       RATES FOR THIS TIME STEP      L**3/T
     ------------------                 ------------------------

           IN:                                      IN:
           ---                                      ---
             STORAGE     =   507170816.0000               STORAGE     =          16.6264
       CONSTANT HEAD     =           0.0000         CONSTANT HEAD     =           0.0000
     HEAD DEP BOUNDS     =     6781338.5000       HEAD DEP BOUNDS     =           0.2854
      STREAM LEAKAGE     =   302952736.0000        STREAM LEAKAGE     =          12.2831
        UZF RECHARGE     =    53907152.0000          UZF RECHARGE     =          31.5664
               GW ET     =           0.0000                 GW ET     =           0.0000
     SURFACE LEAKAGE     =           0.0000       SURFACE LEAKAGE     =           0.0000
           AG WELLS      =           0.0000             AG WELLS      =           0.0000

                TOTAL IN =   870812032.0000                  TOTAL IN =          60.7614

          OUT:                                     OUT:
          ----                                     ----
             STORAGE     =   138497456.0000               STORAGE     =          38.5327
       CONSTANT HEAD     =           0.0000         CONSTANT HEAD     =           0.0000
     HEAD DEP BOUNDS     =     7020344.0000       HEAD DEP BOUNDS     =           0.2948
      STREAM LEAKAGE     =   241225056.0000        STREAM LEAKAGE     =          10.7255
        UZF RECHARGE     =           0.0000          UZF RECHARGE     =           0.0000
               GW ET     =    13582024.0000                 GW ET     =           0.2574
     SURFACE LEAKAGE     =           0.0000       SURFACE LEAKAGE     =           0.0000
           AG WELLS      =   470484032.0000             AG WELLS      =          10.9500

               TOTAL OUT =   870808896.0000                 TOTAL OUT =          60.7603

                IN - OUT =        3136.0000                  IN - OUT =       1.0490E-03

     PERCENT DISCREPANCY =           0.00         PERCENT DISCREPANCY =           0.00






         TIME SUMMARY AT END OF TIME STEP   30 IN STRESS PERIOD   10
                    SECONDS     MINUTES      HOURS       DAYS        YEARS
                    -----------------------------------------------------------
   TIME STEP LENGTH  87667.      1461.1      24.352      1.0147     2.77799E-03
 STRESS PERIOD TIME 2.63000E+06  43833.      730.56      30.440     8.33397E-02
         TOTAL TIME 2.37564E+07 3.95940E+05  6599.0      274.96     0.75279    
1
1
                            STRESS PERIOD NO.   11, LENGTH =   2630000.    
                            -----------------------------------------------

                              NUMBER OF TIME STEPS =    30

                               MULTIPLIER FOR DELT =     1.000

                            INITIAL TIME STEP SIZE =   87666.66    

 REUSING NON-PARAMETER GHB CELLS FROM LAST STRESS PERIOD

      2 GHB CELLS

 REUSING STREAM SEGMENT DATA FROM LAST STRESS PERIOD



            AREAL INFILTRATION RATE
 READING ON UNIT   19 WITH FORMAT: (10F4.0)            

            1           2           3           4           5           6           7           8           9          10
 ........................................................................................................................
   1   1.2000E-09   0.000       0.000       0.000       0.000       0.000       0.000       0.000       0.000       0.000    
   2   2.1000E-09  2.0000E-09  8.0000E-10  8.5000E-09   0.000       0.000       0.000       0.000       0.000       0.000    
   3   5.0000E-10  1.1000E-09  8.8000E-09  5.5000E-09   0.000       0.000       0.000       0.000       0.000       0.000    
   4   8.5000E-09  1.1000E-09  1.1000E-09  1.1000E-09  2.0000E-09   0.000       0.000       0.000       0.000       0.000    
   5   8.5000E-09  1.1000E-09  1.1000E-09  1.1000E-09  1.1000E-09   0.000       0.000       0.000       0.000       0.000    
   6   8.5000E-09  5.2000E-09  2.1000E-09  1.1000E-09  1.5000E-09   0.000       0.000       0.000       0.000       0.000    
   7   8.5000E-09  5.2000E-09  2.1000E-09  1.2000E-09  2.0000E-09   0.000       0.000       0.000       0.000       0.000    
   8   5.0000E-10  5.2000E-09  2.1000E-09  1.2000E-09  5.0000E-09   0.000       0.000       0.000       0.000       0.000    
   9   5.0000E-10  5.2000E-09  2.1000E-09  1.2000E-09  5.0000E-09   0.000       0.000       0.000       0.000       0.000    
  10   5.0000E-10  5.2000E-09  2.1000E-09  1.2000E-09  5.8000E-09   0.000       0.000       0.000       0.000       0.000    
  11   1.0000E-10  1.1000E-09  1.1000E-09  1.2000E-09  5.0000E-09   0.000       0.000       0.000       0.000       0.000    
  12   1.1000E-09  1.1000E-09  1.1000E-09  1.1000E-09  2.0000E-09   0.000       0.000       0.000       0.000       0.000    
  13   1.1000E-09  2.2000E-09  2.2000E-09  2.1000E-09  1.0000E-09   0.000       0.000       0.000       0.000       0.000    
  14   2.0000E-10  5.5000E-09  5.5000E-09  5.2000E-09  1.0000E-09   0.000       0.000       0.000       0.000       0.000    
  15    0.000      8.8000E-09  8.8000E-09   0.000       0.000       0.000       0.000       0.000       0.000       0.000    

                  ET RATE =  5.000000E-09

 USING ET EXTINCTION DEPTH FROM PREVIOUS STRESS PERIOD. CURRENT PERIOD IS:      11

 USING EXTINCTION WATER CONTENT FROM PREVIOUS STRESS PERIOD. CURRENT PERIOD IS:      11

 USING AIR ENTRY PRESSURE FROM PREVIOUS STRESS PERIOD. CURRENT PERIOD IS:      11

 USING ROOT PRESSURE HEAD FROM PREVIOUS STRESS PERIOD. CURRENT PERIOD IS:      11

 USING ROOT ACTIVITY FROM PREVIOUS STRESS PERIOD. CURRENT PERIOD IS:      11

 PROCESSING AG STRESS PERIOD DATA

 READING AG STRESS PERIOD DATA

 READING IRRIGATION WELL

 END PROCESSING AG STRESS PERIOD DATA OPTIONS
 
 SOLVING FOR HEAD 
                                                   Max.-Head-Change                         Max.-Flux-Residual
  Residual-Control   Outer-Iter.   Inner-Iter.     Column Row Layer    Maximum-Head-Change  Column Row Layer    Maximum-Flux-Residual          L2-NORM 
          0                 1           2             4    7     1       0.1593169244E+00       4    7    1         0.8374901451E+01      0.1637191242E+02
          0                 2           2             5    7     1       0.3411119547E-01       5    7    1         0.1876603622E+01      0.3520751124E+01
          0                 3           2             4    6     1       0.7614002078E-02       4    6    1         0.4166606049E+00      0.5820711667E+00
          0                 4           2             4    6     1       0.2029482266E-02       4    6    1         0.1105689590E+00      0.1171882033E+00
          0                 5           2             4    6     1       0.5409508905E-03       4    6    1         0.2950939175E-01      0.2962664463E-01
          0                 6           2             4    6     1       0.1441884248E-03       4    6    1         0.7863526850E-02      0.7864565979E-02
          0                 7           1             4    6     1       0.3843288491E-04       4    6    1         0.2096075310E-02      0.2096134385E-02

    ------------------------------------------------
       NWT REQUIRED            7 OUTER ITERATIONS 
       AND A TOTAL OF         13 INNER ITERATIONS.
    ------------------------------------------------

 NO OUTPUT CONTROL FOR STRESS PERIOD   11   TIME STEP    1
 
 SOLVING FOR HEAD 
                                                   Max.-Head-Change                         Max.-Flux-Residual
  Residual-Control   Outer-Iter.   Inner-Iter.     Column Row Layer    Maximum-Head-Change  Column Row Layer    Maximum-Flux-Residual          L2-NORM 
          0                 1           2             4    7     1       0.1595460002E+00       4    7    1         0.8398876638E+01      0.1599426156E+02
          0                 2           2             4    7     1      -0.1514023250E-01       4    7    1        -0.8394632270E+00      0.1594039966E+01
          0                 3           2             4    6     1      -0.1264417437E-02       4    6    1        -0.7246344011E-01      0.1230078663E+00
          0                 4           1             4    6     1       0.8604088921E-04       4    6    1         0.5024921312E-02      0.6480741723E-02

    ------------------------------------------------
       NWT REQUIRED            4 OUTER ITERATIONS 
       AND A TOTAL OF          7 INNER ITERATIONS.
    ------------------------------------------------

 NO OUTPUT CONTROL FOR STRESS PERIOD   11   TIME STEP    2
 
 SOLVING FOR HEAD 
                                                   Max.-Head-Change                         Max.-Flux-Residual
  Residual-Control   Outer-Iter.   Inner-Iter.     Column Row Layer    Maximum-Head-Change  Column Row Layer    Maximum-Flux-Residual          L2-NORM 
          0                 1           2             4    7     1       0.1577846768E+00       4    7    1         0.8309517061E+01      0.1571331567E+02
          0                 2           2             4    7     1      -0.1534029583E-01       4    7    1        -0.8305327099E+00      0.1570522602E+01
          0                 3           2             4    7     1       0.1043826942E-02       4    7    1         0.5809328240E-01      0.1098553531E+00
          0                 4           1             4    7     1      -0.4148284857E-04       4    7    1        -0.2373043605E-02      0.4487583800E-02

    ------------------------------------------------
       NWT REQUIRED            4 OUTER ITERATIONS 
       AND A TOTAL OF          7 INNER ITERATIONS.
    ------------------------------------------------

 NO OUTPUT CONTROL FOR STRESS PERIOD   11   TIME STEP    3
 
 SOLVING FOR HEAD 
                                                   Max.-Head-Change                         Max.-Flux-Residual
  Residual-Control   Outer-Iter.   Inner-Iter.     Column Row Layer    Maximum-Head-Change  Column Row Layer    Maximum-Flux-Residual          L2-NORM 
          0                 1           2             4    7     1       0.1556425725E+00       4    7    1         0.8198162508E+01      0.1545557627E+02
          0                 2           2             4    7     1       0.2088906766E-01       4    7    1         0.1164891287E+01      0.1752668784E+01
          0                 3           2             4    7     1       0.5582313083E-02       4    7    1         0.3019828976E+00      0.3157776935E+00
          0                 4           1             4    7     1       0.1491794985E-02       4    7    1         0.8129021615E-01      0.8136141976E-01
          0                 5           1             4    7     1       0.3986608935E-03       4    7    1         0.2170022452E-01      0.2170124382E-01
          0                 6           1             4    7     1       0.1065364486E-03       4    7    1         0.5798867474E-02      0.5799221653E-02
          0                 7           1             4    7     1       0.2847034965E-04       4    7    1         0.1549662809E-02      0.1549759663E-02

    ------------------------------------------------
       NWT REQUIRED            7 OUTER ITERATIONS 
       AND A TOTAL OF         10 INNER ITERATIONS.
    ------------------------------------------------

 NO OUTPUT CONTROL FOR STRESS PERIOD   11   TIME STEP    4
 
 SOLVING FOR HEAD 
                                                   Max.-Head-Change                         Max.-Flux-Residual
  Residual-Control   Outer-Iter.   Inner-Iter.     Column Row Layer    Maximum-Head-Change  Column Row Layer    Maximum-Flux-Residual          L2-NORM 
          0                 1           2             4    7     1       0.1513904172E+00       4    7    1         0.7970199008E+01      0.1518899646E+02
          0                 2           2             4    7     1       0.2178355248E-01       4    7    1         0.1213261439E+01      0.1772597462E+01
          0                 3           2             4    7     1      -0.2117829107E-02       4    7    1        -0.1204676594E+00      0.1510600595E+00
          0                 4           1             4    7     1       0.1441131587E-03       4    7    1         0.8372825974E-02      0.9193061257E-02
          0                 5           1             4    7     1      -0.5727510852E-05       4    7    1        -0.3399027369E-03      0.3440034684E-03

    ------------------------------------------------
       NWT REQUIRED            5 OUTER ITERATIONS 
       AND A TOTAL OF          8 INNER ITERATIONS.
    ------------------------------------------------

 NO OUTPUT CONTROL FOR STRESS PERIOD   11   TIME STEP    5
 
 SOLVING FOR HEAD 
                                                   Max.-Head-Change                         Max.-Flux-Residual
  Residual-Control   Outer-Iter.   Inner-Iter.     Column Row Layer    Maximum-Head-Change  Column Row Layer    Maximum-Flux-Residual          L2-NORM 
          0                 1           2             4    7     1       0.1466793707E+00       4    7    1         0.7774095618E+01      0.1377258984E+02
          0                 2           2             4    6     1       0.1439032896E-01       4    6    1         0.7968791982E+00      0.1333457139E+01
          0                 3           2             4    6     1       0.3840077384E-02       4    6    1         0.2083985594E+00      0.2218193105E+00
          0                 4           2             4    6     1       0.1025185069E-02       4    6    1         0.5588306138E-01      0.5614925760E-01
          0                 5           2             4    6     1       0.2738110309E-03       4    6    1         0.1491061347E-01      0.1498837710E-01
          0                 6           1             4    6     1       0.7316148483E-04       4    6    1         0.3982892787E-02      0.4012296230E-02

    ------------------------------------------------
       NWT REQUIRED            6 OUTER ITERATIONS 
       AND A TOTAL OF         11 INNER ITERATIONS.
    ------------------------------------------------

 NO OUTPUT CONTROL FOR STRESS PERIOD   11   TIME STEP    6
 
 SOLVING FOR HEAD 
                                                   Max.-Head-Change                         Max.-Flux-Residual
  Residual-Control   Outer-Iter.   Inner-Iter.     Column Row Layer    Maximum-Head-Change  Column Row Layer    Maximum-Flux-Residual          L2-NORM 
          0                 1           2             4    7     1       0.1426172686E+00       4    7    1         0.7637502519E+01      0.1220668739E+02
          0                 2           2             4    6     1       0.3415391568E-01       4    6    1         0.1852618991E+01      0.2509674450E+01
          0                 3           2             5    6     1       0.7060113903E-02       5    6    1         0.3895836308E+00      0.3948225811E+00
          0                 4           2             5    6     1       0.1851584698E-02       5    6    1         0.1021743305E+00      0.1022127848E+00
          0                 5           2             5    6     1       0.4855968698E-03       5    6    1         0.2679729036E-01      0.2679776598E-01
          0                 6           2             5    6     1       0.1273527322E-03       5    6    1         0.7027821586E-02      0.7027940836E-02
          0                 7           1             5    6     1       0.3339955498E-04       5    6    1         0.1843119822E-02      0.1843150622E-02

    ------------------------------------------------
       NWT REQUIRED            7 OUTER ITERATIONS 
       AND A TOTAL OF         13 INNER ITERATIONS.
    ------------------------------------------------

 NO OUTPUT CONTROL FOR STRESS PERIOD   11   TIME STEP    7
 
 SOLVING FOR HEAD 
                                                   Max.-Head-Change                         Max.-Flux-Residual
  Residual-Control   Outer-Iter.   Inner-Iter.     Column Row Layer    Maximum-Head-Change  Column Row Layer    Maximum-Flux-Residual          L2-NORM 
          0                 1           2             4    7     1       0.1391271709E+00       4    7    1         0.7447476070E+01      0.1089135704E+02
          0                 2           2             4    7     1      -0.1352674907E-01       4    7    1        -0.7443979842E+00      0.1088577405E+01
          0                 3           2             4    7     1       0.9204327043E-03       4    7    1         0.5206886711E-01      0.7614674377E-01
          0                 4           1             4    7     1      -0.3657975415E-04       4    7    1        -0.2126997241E-02      0.3110785541E-02

    ------------------------------------------------
       NWT REQUIRED            4 OUTER ITERATIONS 
       AND A TOTAL OF          7 INNER ITERATIONS.
    ------------------------------------------------

 NO OUTPUT CONTROL FOR STRESS PERIOD   11   TIME STEP    8
 
 SOLVING FOR HEAD 
                                                   Max.-Head-Change                         Max.-Flux-Residual
  Residual-Control   Outer-Iter.   Inner-Iter.     Column Row Layer    Maximum-Head-Change  Column Row Layer    Maximum-Flux-Residual          L2-NORM 
          0                 1           2             4    7     1       0.1351089086E+00       4    7    1         0.7228763433E+01      0.1051970697E+02
          0                 2           2             4    7     1       0.2175886700E-01       4    7    1         0.1200646323E+01      0.1423055382E+01
          0                 3           2             4    7     1       0.5801208047E-02       4    7    1         0.3153853564E+00      0.3199890842E+00
          0                 4           1             4    7     1       0.1546683855E-02       4    7    1         0.8438126878E-01      0.8440263170E-01
          0                 5           1             4    7     1       0.4123676458E-03       4    7    1         0.2248533107E-01      0.2248599019E-01
          0                 6           1             4    7     1       0.1099430296E-03       4    7    1         0.5995007363E-02      0.5995175577E-02
          0                 7           1             4    7     1       0.2931236261E-04       4    7    1         0.1598345365E-02      0.1598392088E-02

    ------------------------------------------------
       NWT REQUIRED            7 OUTER ITERATIONS 
       AND A TOTAL OF         10 INNER ITERATIONS.
    ------------------------------------------------

 NO OUTPUT CONTROL FOR STRESS PERIOD   11   TIME STEP    9
 
 SOLVING FOR HEAD 
                                                   Max.-Head-Change                         Max.-Flux-Residual
  Residual-Control   Outer-Iter.   Inner-Iter.     Column Row Layer    Maximum-Head-Change  Column Row Layer    Maximum-Flux-Residual          L2-NORM 
          0                 1           2             4    6     1       0.1143524669E+00       4    6    1         0.6148876537E+01      0.8728313590E+01
          0                 2           2             4    6     1      -0.1111775300E-01       4    6    1        -0.6145795914E+00      0.8724198727E+00
          0                 3           2             4    6     1       0.7565185318E-03       4    6    1         0.4298871943E-01      0.6102809221E-01
          0                 4           1             4    6     1      -0.3006575140E-04       4    6    1        -0.1756084772E-02      0.2493272565E-02

    ------------------------------------------------
       NWT REQUIRED            4 OUTER ITERATIONS 
       AND A TOTAL OF          7 INNER ITERATIONS.
    ------------------------------------------------

 NO OUTPUT CONTROL FOR STRESS PERIOD   11   TIME STEP   10
 
 SOLVING FOR HEAD 
                                                   Max.-Head-Change                         Max.-Flux-Residual
  Residual-Control   Outer-Iter.   Inner-Iter.     Column Row Layer    Maximum-Head-Change  Column Row Layer    Maximum-Flux-Residual          L2-NORM 
          0                 1           2             4    6     1       0.1100465289E+00       4    6    1         0.5941600138E+01      0.7709051472E+01
          0                 2           2             4    6     1      -0.1069924893E-01       4    6    1        -0.5938714003E+00      0.7705570564E+00
          0                 3           2             4    6     1       0.7280421793E-03       4    6    1         0.4154027095E-01      0.5390371013E-01
          0                 4           1             4    6     1      -0.2893419272E-04       4    6    1        -0.1696924653E-02      0.2202314039E-02

    ------------------------------------------------
       NWT REQUIRED            4 OUTER ITERATIONS 
       AND A TOTAL OF          7 INNER ITERATIONS.
    ------------------------------------------------

 NO OUTPUT CONTROL FOR STRESS PERIOD   11   TIME STEP   11
 
 SOLVING FOR HEAD 
                                                   Max.-Head-Change                         Max.-Flux-Residual
  Residual-Control   Outer-Iter.   Inner-Iter.     Column Row Layer    Maximum-Head-Change  Column Row Layer    Maximum-Flux-Residual          L2-NORM 
          0                 1           2             4    6     1       0.1059878537E+00       4    6    1         0.5717859082E+01      0.7523587992E+01
          0                 2           2             4    6     1       0.8946072028E-02       4    6    1         0.4944276214E+00      0.6952501459E+00
          0                 3           2             4    6     1       0.2384268803E-02       4    6    1         0.1296103243E+00      0.1340940081E+00
          0                 4           2             4    6     1       0.6354469670E-03       4    6    1         0.3467869009E-01      0.3470368307E-01
          0                 5           2             4    6     1       0.1693570335E-03       4    6    1         0.9236938319E-02      0.9237245952E-02
          0                 6           1             4    6     1       0.4513643100E-04       4    6    1         0.2461870815E-02      0.2461939738E-02

    ------------------------------------------------
       NWT REQUIRED            6 OUTER ITERATIONS 
       AND A TOTAL OF         11 INNER ITERATIONS.
    ------------------------------------------------

 NO OUTPUT CONTROL FOR STRESS PERIOD   11   TIME STEP   12
 
 SOLVING FOR HEAD 
                                                   Max.-Head-Change                         Max.-Flux-Residual
  Residual-Control   Outer-Iter.   Inner-Iter.     Column Row Layer    Maximum-Head-Change  Column Row Layer    Maximum-Flux-Residual          L2-NORM 
          0                 1           2             4    6     1       0.1010346219E+00       4    6    1         0.5444752823E+01      0.7315546207E+01
          0                 2           2             4    6     1       0.2692685618E-01       4    6    1         0.1475630119E+01      0.1554353311E+01
          0                 3           2             4    6     1       0.7176329909E-02       4    6    1         0.3909923113E+00      0.3925354807E+00
          0                 4           2             4    6     1       0.1912582944E-02       4    6    1         0.1043418182E+00      0.1043488093E+00
          0                 5           2             4    6     1       0.5097277631E-03       4    6    1         0.2780281855E-01      0.2780332563E-01
          0                 6           2             4    6     1       0.1358489749E-03       4    6    1         0.7410037018E-02      0.7410122645E-02
          0                 7           1             4    6     1       0.3620549212E-04       4    6    1         0.1974860492E-02      0.1974885194E-02

    ------------------------------------------------
       NWT REQUIRED            7 OUTER ITERATIONS 
       AND A TOTAL OF         13 INNER ITERATIONS.
    ------------------------------------------------

 NO OUTPUT CONTROL FOR STRESS PERIOD   11   TIME STEP   13
 
 SOLVING FOR HEAD 
                                                   Max.-Head-Change                         Max.-Flux-Residual
  Residual-Control   Outer-Iter.   Inner-Iter.     Column Row Layer    Maximum-Head-Change  Column Row Layer    Maximum-Flux-Residual          L2-NORM 
          0                 1           2             4    7     1       0.4487201595E-01       4    7    1         0.2378706173E+01      0.5014382167E+01
          0                 2           2             4    7     1      -0.4362528891E-02       4    7    1        -0.2377462918E+00      0.5012193505E+00
          0                 3           2             4    7     1       0.2968495314E-03       4    7    1         0.1662977436E-01      0.3506678650E-01
          0                 4           1             4    7     1      -0.1179722652E-04       4    7    1        -0.6793124526E-03      0.1432994225E-02

    ------------------------------------------------
       NWT REQUIRED            4 OUTER ITERATIONS 
       AND A TOTAL OF          7 INNER ITERATIONS.
    ------------------------------------------------

 NO OUTPUT CONTROL FOR STRESS PERIOD   11   TIME STEP   14
 
 SOLVING FOR HEAD 
                                                   Max.-Head-Change                         Max.-Flux-Residual
  Residual-Control   Outer-Iter.   Inner-Iter.     Column Row Layer    Maximum-Head-Change  Column Row Layer    Maximum-Flux-Residual          L2-NORM 
          0                 1           2             4    7     1       0.4387375294E-01       4    7    1         0.2331478196E+01      0.4857143873E+01
          0                 2           2             4    7     1      -0.4265476624E-02       4    7    1        -0.2330259261E+00      0.4855316377E+00
          0                 3           2             4    7     1       0.2902461396E-03       4    7    1         0.1629962928E-01      0.3396935334E-01
          0                 4           1             4    7     1      -0.1153483195E-04       4    7    1        -0.6658283205E-03      0.1388112479E-02

    ------------------------------------------------
       NWT REQUIRED            4 OUTER ITERATIONS 
       AND A TOTAL OF          7 INNER ITERATIONS.
    ------------------------------------------------

 NO OUTPUT CONTROL FOR STRESS PERIOD   11   TIME STEP   15
 
 SOLVING FOR HEAD 
                                                   Max.-Head-Change                         Max.-Flux-Residual
  Residual-Control   Outer-Iter.   Inner-Iter.     Column Row Layer    Maximum-Head-Change  Column Row Layer    Maximum-Flux-Residual          L2-NORM 
          0                 1           2             4    7     1       0.4292541932E-01       4    7    1         0.2279602343E+01      0.4780107018E+01
          0                 2           2             4    7     1      -0.4173275675E-02       4    7    1        -0.2278408950E+00      0.4778311413E+00
          0                 3           2             4    7     1       0.2839721743E-03       4    7    1         0.1593694125E-01      0.3343068575E-01
          0                 4           1             4    7     1      -0.1128548630E-04       4    7    1        -0.6510122341E-03      0.1366134678E-02

    ------------------------------------------------
       NWT REQUIRED            4 OUTER ITERATIONS 
       AND A TOTAL OF          7 INNER ITERATIONS.
    ------------------------------------------------

 NO OUTPUT CONTROL FOR STRESS PERIOD   11   TIME STEP   16
 
 SOLVING FOR HEAD 
                                                   Max.-Head-Change                         Max.-Flux-Residual
  Residual-Control   Outer-Iter.   Inner-Iter.     Column Row Layer    Maximum-Head-Change  Column Row Layer    Maximum-Flux-Residual          L2-NORM 
          0                 1           2             4    7     1       0.4202356629E-01       4    7    1         0.2230330004E+01      0.4706372213E+01
          0                 2           2             4    7     1      -0.4085593839E-02       4    7    1        -0.2229160917E+00      0.4704606563E+00
          0                 3           2             4    7     1       0.2780057253E-03       4    7    1         0.1559245622E-01      0.3291506160E-01
          0                 4           1             4    7     1      -0.1104836293E-04       4    7    1        -0.6369397834E-03      0.1345087368E-02

    ------------------------------------------------
       NWT REQUIRED            4 OUTER ITERATIONS 
       AND A TOTAL OF          7 INNER ITERATIONS.
    ------------------------------------------------

 NO OUTPUT CONTROL FOR STRESS PERIOD   11   TIME STEP   17
 
 SOLVING FOR HEAD 
                                                   Max.-Head-Change                         Max.-Flux-Residual
  Residual-Control   Outer-Iter.   Inner-Iter.     Column Row Layer    Maximum-Head-Change  Column Row Layer    Maximum-Flux-Residual          L2-NORM 
          0                 1           2             4    7     1       0.4116490125E-01       4    7    1         0.2183474935E+01      0.4635650397E+01
          0                 2           2             4    7     1      -0.4002110992E-02       4    7    1        -0.2182329007E+00      0.4633912413E+00
          0                 3           2             4    7     1       0.2723250077E-03       4    7    1         0.1526487201E-01      0.3242045826E-01
          0                 4           1             4    7     1      -0.1082259575E-04       4    7    1        -0.6235577637E-03      0.1324871265E-02

    ------------------------------------------------
       NWT REQUIRED            4 OUTER ITERATIONS 
       AND A TOTAL OF          7 INNER ITERATIONS.
    ------------------------------------------------

 NO OUTPUT CONTROL FOR STRESS PERIOD   11   TIME STEP   18
 
 SOLVING FOR HEAD 
                                                   Max.-Head-Change                         Max.-Flux-Residual
  Residual-Control   Outer-Iter.   Inner-Iter.     Column Row Layer    Maximum-Head-Change  Column Row Layer    Maximum-Flux-Residual          L2-NORM 
          0                 1           2             4    7     1       0.4034639927E-01       4    7    1         0.2138866423E+01      0.4567689297E+01
          0                 2           2             4    7     1      -0.3922533033E-02       4    7    1        -0.2137742589E+00      0.4565978172E+00
          0                 3           2             4    7     1       0.2669100085E-03       4    7    1         0.1495299502E-01      0.3194517993E-01
          0                 4           1             4    7     1      -0.1060738899E-04       4    7    1        -0.6108174018E-03      0.1305442220E-02

    ------------------------------------------------
       NWT REQUIRED            4 OUTER ITERATIONS 
       AND A TOTAL OF          7 INNER ITERATIONS.
    ------------------------------------------------

 NO OUTPUT CONTROL FOR STRESS PERIOD   11   TIME STEP   19
 
 SOLVING FOR HEAD 
                                                   Max.-Head-Change                         Max.-Flux-Residual
  Residual-Control   Outer-Iter.   Inner-Iter.     Column Row Layer    Maximum-Head-Change  Column Row Layer    Maximum-Flux-Residual          L2-NORM 
          0                 1           2             4    7     1       0.3956502298E-01       4    7    1         0.2096332971E+01      0.4502253968E+01
          0                 2           2             4    7     1      -0.3846564650E-02       4    7    1        -0.2095230249E+00      0.4500568326E+00
          0                 3           2             4    7     1       0.2617406331E-03       4    7    1         0.1465562622E-01      0.3148753240E-01
          0                 4           1             4    7     1      -0.1040194494E-04       4    7    1        -0.5986697686E-03      0.1286705552E-02

    ------------------------------------------------
       NWT REQUIRED            4 OUTER ITERATIONS 
       AND A TOTAL OF          7 INNER ITERATIONS.
    ------------------------------------------------

 NO OUTPUT CONTROL FOR STRESS PERIOD   11   TIME STEP   20
 
 SOLVING FOR HEAD 
                                                   Max.-Head-Change                         Max.-Flux-Residual
  Residual-Control   Outer-Iter.   Inner-Iter.     Column Row Layer    Maximum-Head-Change  Column Row Layer    Maximum-Flux-Residual          L2-NORM 
          0                 1           2             4    7     1       0.3881824058E-01       4    7    1         0.2055731754E+01      0.4439145885E+01
          0                 2           2             4    7     1      -0.3773959688E-02       4    7    1        -0.2054649226E+00      0.4437484986E+00
          0                 3           2             4    7     1       0.2568001298E-03       4    7    1         0.1437176700E-01      0.3104619098E-01
          0                 4           1             4    7     1      -0.1020559608E-04       4    7    1        -0.5870739612E-03      0.1268696142E-02

    ------------------------------------------------
       NWT REQUIRED            4 OUTER ITERATIONS 
       AND A TOTAL OF          7 INNER ITERATIONS.
    ------------------------------------------------

 NO OUTPUT CONTROL FOR STRESS PERIOD   11   TIME STEP   21
 
 SOLVING FOR HEAD 
                                                   Max.-Head-Change                         Max.-Flux-Residual
  Residual-Control   Outer-Iter.   Inner-Iter.     Column Row Layer    Maximum-Head-Change  Column Row Layer    Maximum-Flux-Residual          L2-NORM 
          0                 1           2             4    7     1       0.3810372386E-01       4    7    1         0.2016931504E+01      0.4378184065E+01
          0                 2           2             4    7     1      -0.3704491783E-02       4    7    1        -0.2015868317E+00      0.4376545978E+00
          0                 3           2             4    7     1       0.2520730961E-03       4    7    1         0.1410049956E-01      0.3061985609E-01
          0                 4           1             4    7     1      -0.1001773213E-04       4    7    1        -0.5759925991E-03      0.1251272125E-02

    ------------------------------------------------
       NWT REQUIRED            4 OUTER ITERATIONS 
       AND A TOTAL OF          7 INNER ITERATIONS.
    ------------------------------------------------

 NO OUTPUT CONTROL FOR STRESS PERIOD   11   TIME STEP   22
 
 SOLVING FOR HEAD 
                                                   Max.-Head-Change                         Max.-Flux-Residual
  Residual-Control   Outer-Iter.   Inner-Iter.     Column Row Layer    Maximum-Head-Change  Column Row Layer    Maximum-Flux-Residual          L2-NORM 
          0                 1           2             4    7     1       0.3741934366E-01       4    7    1         0.1979811507E+01      0.4319213034E+01
          0                 2           2             4    7     1      -0.3637953924E-02       4    7    1        -0.1978766863E+00      0.4317597568E+00
          0                 3           2             4    7     1       0.2475454449E-03       4    7    1         0.1384097993E-01      0.3020743080E-01
          0                 4           1             4    7     1      -0.9837792065E-05       4    7    1        -0.5653911394E-03      0.1234448847E-02

    ------------------------------------------------
       NWT REQUIRED            4 OUTER ITERATIONS 
       AND A TOTAL OF          7 INNER ITERATIONS.
    ------------------------------------------------

 NO OUTPUT CONTROL FOR STRESS PERIOD   11   TIME STEP   23
 
 SOLVING FOR HEAD 
                                                   Max.-Head-Change                         Max.-Flux-Residual
  Residual-Control   Outer-Iter.   Inner-Iter.     Column Row Layer    Maximum-Head-Change  Column Row Layer    Maximum-Flux-Residual          L2-NORM 
          0                 1           2             4    7     1       0.3676287328E-01       4    7    1         0.1944246709E+01      0.4262076353E+01
          0                 2           2             4    7     1      -0.3574129620E-02       4    7    1        -0.1943219870E+00      0.4260482459E+00
          0                 3           2             4    7     1       0.2432024438E-03       4    7    1         0.1359233371E-01      0.2980783737E-01
          0                 4           1             4    7     1      -0.9665190694E-05       4    7    1        -0.5552338603E-03      0.1218088930E-02

    ------------------------------------------------
       NWT REQUIRED            4 OUTER ITERATIONS 
       AND A TOTAL OF          7 INNER ITERATIONS.
    ------------------------------------------------

 NO OUTPUT CONTROL FOR STRESS PERIOD   11   TIME STEP   24
 
 SOLVING FOR HEAD 
                                                   Max.-Head-Change                         Max.-Flux-Residual
  Residual-Control   Outer-Iter.   Inner-Iter.     Column Row Layer    Maximum-Head-Change  Column Row Layer    Maximum-Flux-Residual          L2-NORM 
          0                 1           2             4    7     1       0.3613265902E-01       4    7    1         0.1910143651E+01      0.4206652789E+01
          0                 2           2             4    7     1      -0.3512858085E-02       4    7    1        -0.1909133922E+00      0.4205079706E+00
          0                 3           2             4    7     1       0.2390331523E-03       4    7    1         0.1335390748E-01      0.2942021762E-01
          0                 4           1             4    7     1      -0.9499493410E-05       4    7    1        -0.5454941013E-03      0.1202248533E-02

    ------------------------------------------------
       NWT REQUIRED            4 OUTER ITERATIONS 
       AND A TOTAL OF          7 INNER ITERATIONS.
    ------------------------------------------------

 NO OUTPUT CONTROL FOR STRESS PERIOD   11   TIME STEP   25
 
 SOLVING FOR HEAD 
                                                   Max.-Head-Change                         Max.-Flux-Residual
  Residual-Control   Outer-Iter.   Inner-Iter.     Column Row Layer    Maximum-Head-Change  Column Row Layer    Maximum-Flux-Residual          L2-NORM 
          0                 1           2             4    7     1       0.3552678680E-01       4    7    1         0.1877394598E+01      0.4152820558E+01
          0                 2           2             4    7     1      -0.3453953222E-02       4    7    1        -0.1876401335E+00      0.4151267428E+00
          0                 3           2             4    7     1       0.2350249069E-03       4    7    1         0.1312494800E-01      0.2904371822E-01
          0                 4           1             4    7     1      -0.9340196531E-05       4    7    1        -0.5361410745E-03      0.1186860585E-02

    ------------------------------------------------
       NWT REQUIRED            4 OUTER ITERATIONS 
       AND A TOTAL OF          7 INNER ITERATIONS.
    ------------------------------------------------

 NO OUTPUT CONTROL FOR STRESS PERIOD   11   TIME STEP   26
 
 SOLVING FOR HEAD 
                                                   Max.-Head-Change                         Max.-Flux-Residual
  Residual-Control   Outer-Iter.   Inner-Iter.     Column Row Layer    Maximum-Head-Change  Column Row Layer    Maximum-Flux-Residual          L2-NORM 
          0                 1           2             4    7     1       0.3494375640E-01       4    7    1         0.1845914971E+01      0.4100479510E+01
          0                 2           2             4    7     1      -0.3397269171E-02       4    7    1        -0.1844937571E+00      0.4098944845E+00
          0                 3           2             4    7     1       0.2311677816E-03       4    7    1         0.1290486390E-01      0.2867766405E-01
          0                 4           1             4    7     1      -0.9186905397E-05       4    7    1        -0.5271506097E-03      0.1171914322E-02

    ------------------------------------------------
       NWT REQUIRED            4 OUTER ITERATIONS 
       AND A TOTAL OF          7 INNER ITERATIONS.
    ------------------------------------------------

 NO OUTPUT CONTROL FOR STRESS PERIOD   11   TIME STEP   27
 
 SOLVING FOR HEAD 
                                                   Max.-Head-Change                         Max.-Flux-Residual
  Residual-Control   Outer-Iter.   Inner-Iter.     Column Row Layer    Maximum-Head-Change  Column Row Layer    Maximum-Flux-Residual          L2-NORM 
          0                 1           2             4    7     1       0.3438205657E-01       4    7    1         0.1815619656E+01      0.4049532835E+01
          0                 2           2             4    7     1      -0.3342658995E-02       4    7    1        -0.1814657553E+00      0.4048018716E+00
          0                 3           2             4    7     1       0.2274517781E-03       4    7    1         0.1269306007E-01      0.2832138132E-01
          0                 4           1             4    7     1      -0.9039223511E-05       4    7    1        -0.5184984213E-03      0.1157398102E-02

    ------------------------------------------------
       NWT REQUIRED            4 OUTER ITERATIONS 
       AND A TOTAL OF          7 INNER ITERATIONS.
    ------------------------------------------------

 NO OUTPUT CONTROL FOR STRESS PERIOD   11   TIME STEP   28
 
 SOLVING FOR HEAD 
                                                   Max.-Head-Change                         Max.-Flux-Residual
  Residual-Control   Outer-Iter.   Inner-Iter.     Column Row Layer    Maximum-Head-Change  Column Row Layer    Maximum-Flux-Residual          L2-NORM 
          0                 1           2             4    7     1       0.3384056246E-01       4    7    1         0.1786444962E+01      0.3999905250E+01
          0                 2           2             4    7     1      -0.3290008589E-02       4    7    1        -0.1785497621E+00      0.3996941984E+00
          0                 3           2             4    7     1       0.2238691322E-03       4    7    1         0.1248909123E-01      0.2796402491E-01
          0                 4           1             4    7     1      -0.8896842099E-05       4    7    1        -0.5101663137E-03      0.1142747908E-02

    ------------------------------------------------
       NWT REQUIRED            4 OUTER ITERATIONS 
       AND A TOTAL OF          7 INNER ITERATIONS.
    ------------------------------------------------

 NO OUTPUT CONTROL FOR STRESS PERIOD   11   TIME STEP   29
 
 SOLVING FOR HEAD 
                                                   Max.-Head-Change                         Max.-Flux-Residual
  Residual-Control   Outer-Iter.   Inner-Iter.     Column Row Layer    Maximum-Head-Change  Column Row Layer    Maximum-Flux-Residual          L2-NORM 
          0                 1           2             4    7     1       0.3331772484E-01       4    7    1         0.1758303486E+01      0.3951631814E+01
          0                 2           2             4    7     1      -0.3239181552E-02       4    7    1        -0.1757370412E+00      0.3950143055E+00
          0                 3           2             4    7     1       0.2204105600E-03       4    7    1         0.1229234621E-01      0.2763659701E-01
          0                 4           1             4    7     1      -0.8759390796E-05       4    7    1        -0.5021292643E-03      0.1129373906E-02

    ------------------------------------------------
       NWT REQUIRED            4 OUTER ITERATIONS 
       AND A TOTAL OF          7 INNER ITERATIONS.
    ------------------------------------------------

 NO OUTPUT CONTROL FOR STRESS PERIOD   11   TIME STEP   30



 STREAM LISTING     PERIOD     11   STEP       30

 LAYER ROW COL. STREAM  RCH.  FLOW INTO     FLOW TO   FLOW OUT OF   OVRLND.     DIRECT     STREAM       STREAM     STREAM     STREAM   STREAMBED  STREAMBED
                SEG.NO.  NO.  STRM. RCH.    AQUIFER    STRM. RCH.    RUNOFF     PRECIP       ET          HEAD       DEPTH      WIDTH   CONDCTNC.   GRADIENT

   1    1    1     1     1    3.5000E+01  2.8629E-01   3.4713E+01  0.000E+00  0.000E+00  0.000E+00  1.09434E+03  1.292E+00  1.482E+01  6.670E-02  1.431E+00
   1    2    2     1     2    3.4713E+01  4.4324E-01   3.4270E+01  0.000E+00  0.000E+00  0.000E+00  1.08935E+03  1.289E+00  1.476E+01  1.033E-01  1.430E+00
   1    3    3     1     3    3.4270E+01  3.7790E-01   3.3892E+01  0.000E+00  0.000E+00  0.000E+00  1.08370E+03  1.286E+00  1.470E+01  8.817E-02  1.429E+00
   1    3    4     1     4    3.3892E+01  3.4789E-01   3.3544E+01  0.000E+00  0.000E+00  0.000E+00  1.07869E+03  1.283E+00  1.464E+01  8.123E-02  1.428E+00
   1    4    5     2     1    3.1544E+01  3.4194E-01   3.1202E+01  0.000E+00  0.000E+00  0.000E+00  1.07332E+03  1.384E+00  1.200E+01  7.800E-02  1.461E+00
   1    5    6     2     2    3.1202E+01  2.6255E-01   3.0940E+01  0.000E+00  0.000E+00  0.000E+00  1.06789E+03  1.376E+00  1.200E+01  6.000E-02  1.459E+00
   1    6    6     2     3    3.0940E+01  2.6213E-01   3.0678E+01  0.000E+00  0.000E+00  0.000E+00  1.06316E+03  1.369E+00  1.200E+01  6.000E-02  1.456E+00
   1    7    6     2     4    3.0678E+01  2.6171E-01   3.0416E+01  0.000E+00  0.000E+00  0.000E+00  1.05844E+03  1.362E+00  1.200E+01  6.000E-02  1.454E+00
   1    8    6     2     5    3.0416E+01  2.6129E-01   3.0155E+01  0.000E+00  0.000E+00  0.000E+00  1.05371E+03  1.355E+00  1.200E+01  6.000E-02  1.452E+00
   1    3    5     3     1    2.0000E+00  2.8252E-01   1.7175E+00  0.000E+00  0.000E+00  0.000E+00  1.07555E+03  1.909E+00  9.636E+00  7.227E-02  1.955E+00
   1    3    6     3     2    1.7175E+00  2.4905E-01   1.4684E+00  0.000E+00  0.000E+00  0.000E+00  1.07264E+03  1.727E+00  8.909E+00  6.682E-02  1.864E+00
   1    3    7     3     3    1.4684E+00  1.9718E-01   1.2712E+00  0.000E+00  0.000E+00  0.000E+00  1.06987E+03  1.555E+00  8.218E+00  5.547E-02  1.777E+00
   1    4    8     3     4    1.2712E+00  2.2567E-01   1.0456E+00  0.000E+00  0.000E+00  0.000E+00  1.06682E+03  1.364E+00  7.455E+00  6.709E-02  1.682E+00
   1    5    8     3     5    1.0456E+00  1.5790E-01   8.8768E-01  0.000E+00  0.000E+00  0.000E+00  1.06362E+03  1.164E+00  6.655E+00  4.991E-02  1.582E+00
   1    6    8     3     6    8.8768E-01  5.5980E-02   8.3170E-01  0.000E+00  0.000E+00  0.000E+00  1.06158E+03  1.036E+00  6.145E+00  1.844E-02  1.518E+00
   1    5   10     4     1    1.0000E+01  9.0919E-02   9.9091E+00  0.000E+00  0.000E+00  0.000E+00  1.07836E+03  6.368E-01  1.000E+01  2.500E-02  1.212E+00
   1    5    9     4     2    9.9091E+00  1.8158E-01   9.7275E+00  0.000E+00  0.000E+00  0.000E+00  1.07154E+03  6.315E-01  1.000E+01  5.000E-02  1.211E+00
   1    6    8     4     3    9.7275E+00  1.2689E-01   9.6006E+00  0.000E+00  0.000E+00  0.000E+00  1.06381E+03  6.256E-01  1.000E+01  3.500E-02  1.209E+00
   1    6    8     5     1    1.0432E+01  2.2686E-01   1.0205E+01  0.000E+00  0.000E+00  0.000E+00  1.05868E+03  6.790E-01  1.542E+01  6.166E-02  1.226E+00
   1    7    7     5     2    1.0205E+01  2.7894E-01   9.9265E+00  0.000E+00  0.000E+00  0.000E+00  1.05417E+03  6.732E-01  1.519E+01  7.594E-02  1.224E+00
   1    8    7     5     3    9.9265E+00  1.9221E-01   9.7343E+00  0.000E+00  0.000E+00  0.000E+00  1.04992E+03  6.676E-01  1.497E+01  5.241E-02  1.223E+00
   1    8    6     5     4    9.7343E+00  1.3577E-01   9.5985E+00  0.000E+00  0.000E+00  0.000E+00  1.04691E+03  6.637E-01  1.482E+01  3.706E-02  1.221E+00
   1    9    6     6     1    3.9753E+01  2.7657E-01   3.9477E+01  0.000E+00  0.000E+00  0.000E+00  1.04434E+03  1.609E+00  1.200E+01  6.000E-02  1.536E+00
   1   10    7     6     2    3.9477E+01  2.7616E-01   3.9201E+01  0.000E+00  0.000E+00  0.000E+00  1.03978E+03  1.603E+00  1.200E+01  6.000E-02  1.534E+00
   1   11    7     6     3    3.9201E+01  2.7576E-01   3.8925E+01  0.000E+00  0.000E+00  0.000E+00  1.03523E+03  1.596E+00  1.200E+01  6.000E-02  1.532E+00
   1   12    7     6     4    3.8925E+01  2.7535E-01   3.8649E+01  0.000E+00  0.000E+00  0.000E+00  1.03068E+03  1.589E+00  1.200E+01  6.000E-02  1.530E+00
   1   13    7     6     5    3.8649E+01  6.5047E-03   3.8643E+01  0.000E+00  0.000E+00  0.000E+00  1.02749E+03  1.586E+00  1.200E+01  2.400E-02  9.034E-02
   1   14    9     7     1    1.5000E+02  1.3303E+00   1.4867E+02  0.000E+00  0.000E+00  0.000E+00  1.03987E+03  2.288E+00  5.529E+01  5.593E-01  7.928E-01
   1   13    8     7     2    1.4867E+02  1.7944E+00   1.4688E+02  0.000E+00  0.000E+00  0.000E+00  1.03478E+03  2.279E+00  5.526E+01  6.148E-01  9.729E-01
   1   13    7     7     3    1.4688E+02  1.3775E+00   1.4550E+02  0.000E+00  0.000E+00  0.000E+00  1.02969E+03  2.271E+00  5.522E+01  5.585E-01  8.222E-01
   1   13    6     8     1    1.8414E+02  8.8584E-01   1.8326E+02  0.000E+00  0.000E+00  0.000E+00  1.02491E+03  3.039E+00  4.407E+01  4.491E-01  6.575E-01
   1   13    5     8     2    1.8326E+02  1.2850E-01   1.8313E+02  0.000E+00  0.000E+00  0.000E+00  1.01866E+03  3.036E+00  4.402E+01  4.486E-01  9.548E-02
   1   13    4     8     3    1.8313E+02 -2.6057E+00   1.8573E+02  0.000E+00  0.000E+00  0.000E+00  1.01242E+03  3.044E+00  4.413E+01  4.497E+00 -1.931E-01
   1   13    3     8     4    1.8573E+02 -3.7474E+00   1.8948E+02  0.000E+00  0.000E+00  0.000E+00  1.00619E+03  3.063E+00  4.442E+01  4.526E+00 -2.760E-01
   1   13    2     8     5    1.8948E+02 -2.6147E+00   1.9209E+02  0.000E+00  0.000E+00  0.000E+00  9.99958E+02  3.083E+00  4.470E+01  4.555E+00 -1.913E-01
   1   13    1     8     6    1.9209E+02 -2.0206E+00   1.9411E+02  0.000E+00  0.000E+00  0.000E+00  9.94972E+02  3.097E+00  4.490E+01  2.745E+00 -2.453E-01





UNSATURATED ZONE PACKAGE VOLUMETRIC BUDGET FOR  TIME STEP    30 STRESS PERIOD   11
  ------------------------------------------------------------------------------



     CUMULATIVE VOLUMES      L**3       RATES FOR THIS TIME STEP      L**3/T
     ------------------                 ------------------------

           IN:                                      IN:
           ---                                      ---
        INFILTRATION =   586474689.2312          INFILTRATION =           4.4075

          OUT:                                     OUT:
          ----                                     ----
              UZF ET =   495341011.6565                UZF ET =           3.7800
        UZF RECHARGE =    73017286.7881          UZF RECHARGE =           0.0004

            IN - OUT =    18116390.7866              IN - OUT =           0.6271

          STORAGE:                                 STORAGE:
          --------                                 --------
      STORAGE CHANGE =    18116958.4704        STORAGE CHANGE =           0.6271

 PERCENT DISCREPANCY IS DIFFERENCE BETWEEN IN-OUT MINUS CHANGE IN STORAGE
 DIVIDED BY THE AVERAGE OF IN AND OUT TIMES 100

 PERCENT DISCREPANCY =          -0.00     PERCENT DISCREPANCY =           0.00






1
  VOLUMETRIC BUDGET FOR AGRICULTURAL FIELDS AT TIME STEP   30, STRESS PERIOD  11
  ------------------------------------------------------------------------------

     CUMULATIVE VOLUMES      L**3       RATES FOR THIS TIME STEP      L**3/T
     ------------------                 ------------------------

           IN:                                      IN:
           ---                                      ---
               AG WELLS  =   470484032.0000                 AG WELLS  =           0.0000
      DIVERSION SEGMENTS =           0.0000        DIVERSION SEGMENTS =           0.0000
           GW IRRIGATION =           0.0000             GW IRRIGATION =           0.0000
           SW IRRIGATION =           0.0000             SW IRRIGATION =           0.0000
        SYSTEM LOSSES GW =           0.0000          SYSTEM LOSSES GW =           0.0000
        SYSTEM LOSSES SW =           0.0000          SYSTEM LOSSES SW =           0.0000

                TOTAL IN =   470484032.0000                  TOTAL IN =           0.0000

          OUT:                                     OUT:
          ----                                     ----
               AG WELLS  =           0.0000                 AG WELLS  =           0.0000
      DIVERSION SEGMENTS =           0.0000        DIVERSION SEGMENTS =           0.0000
           GW IRRIGATION =   470484032.0000             GW IRRIGATION =           0.0000
           SW IRRIGATION =           0.0000             SW IRRIGATION =           0.0000
        SYSTEM LOSSES GW =           0.0000          SYSTEM LOSSES GW =           0.0000
        SYSTEM LOSSES SW =           0.0000          SYSTEM LOSSES SW =           0.0000

               TOTAL OUT =   470484032.0000                 TOTAL OUT =           0.0000

                IN - OUT =           0.0000                  IN - OUT =           0.0000

     PERCENT DISCREPANCY =           0.00         PERCENT DISCREPANCY =           0.00



1
  VOLUMETRIC BUDGET FOR ENTIRE MODEL AT END OF TIME STEP   30, STRESS PERIOD  11
  ------------------------------------------------------------------------------

     CUMULATIVE VOLUMES      L**3       RATES FOR THIS TIME STEP      L**3/T
     ------------------                 ------------------------

           IN:                                      IN:
           ---                                      ---
             STORAGE     =   542962880.0000               STORAGE     =          11.1674
       CONSTANT HEAD     =           0.0000         CONSTANT HEAD     =           0.0000
     HEAD DEP BOUNDS     =     7531933.5000       HEAD DEP BOUNDS     =           0.2854
      STREAM LEAKAGE     =   334136608.0000        STREAM LEAKAGE     =          11.8732
        UZF RECHARGE     =    73017280.0000          UZF RECHARGE     =       3.8201E-04
               GW ET     =           0.0000                 GW ET     =           0.0000
     SURFACE LEAKAGE     =           0.0000       SURFACE LEAKAGE     =           0.0000
           AG WELLS      =           0.0000             AG WELLS      =           0.0000

                TOTAL IN =   957648704.0000                  TOTAL IN =          23.3264

          OUT:                                     OUT:
          ----                                     ----
             STORAGE     =   195134736.0000               STORAGE     =          12.0428
       CONSTANT HEAD     =           0.0000         CONSTANT HEAD     =           0.0000
     HEAD DEP BOUNDS     =     7792548.5000       HEAD DEP BOUNDS     =           0.2929
      STREAM LEAKAGE     =   270638624.0000        STREAM LEAKAGE     =          10.9884
        UZF RECHARGE     =           0.0000          UZF RECHARGE     =           0.0000
               GW ET     =    13595227.0000                 GW ET     =       2.2737E-03
     SURFACE LEAKAGE     =           0.0000       SURFACE LEAKAGE     =           0.0000
           AG WELLS      =   470484032.0000             AG WELLS      =           0.0000

               TOTAL OUT =   957645184.0000                 TOTAL OUT =          23.3264

                IN - OUT =        3520.0000                  IN - OUT =       5.7220E-06

     PERCENT DISCREPANCY =           0.00         PERCENT DISCREPANCY =           0.00






         TIME SUMMARY AT END OF TIME STEP   30 IN STRESS PERIOD   11
                    SECONDS     MINUTES      HOURS       DAYS        YEARS
                    -----------------------------------------------------------
   TIME STEP LENGTH  87667.      1461.1      24.352      1.0147     2.77799E-03
 STRESS PERIOD TIME 2.63000E+06  43833.      730.56      30.440     8.33397E-02
         TOTAL TIME 2.63864E+07 4.39773E+05  7329.5      305.40     0.83613    
1
1
                            STRESS PERIOD NO.   12, LENGTH =   2630000.    
                            -----------------------------------------------

                              NUMBER OF TIME STEPS =    30

                               MULTIPLIER FOR DELT =     1.000

                            INITIAL TIME STEP SIZE =   87666.66    

 REUSING NON-PARAMETER GHB CELLS FROM LAST STRESS PERIOD

      2 GHB CELLS

 REUSING STREAM SEGMENT DATA FROM LAST STRESS PERIOD



            AREAL INFILTRATION RATE
 READING ON UNIT   19 WITH FORMAT: (10F4.0)            

            1           2           3           4           5           6           7           8           9          10
 ........................................................................................................................
   1   1.2000E-09   0.000       0.000       0.000       0.000       0.000       0.000       0.000       0.000       0.000    
   2   2.1000E-09  2.0000E-09  8.0000E-10  8.5000E-09   0.000       0.000       0.000       0.000       0.000       0.000    
   3   5.0000E-10  1.1000E-09  8.8000E-09  5.5000E-09   0.000       0.000       0.000       0.000       0.000       0.000    
   4   8.5000E-09  1.1000E-09  1.1000E-09  1.1000E-09  2.0000E-09   0.000       0.000       0.000       0.000       0.000    
   5   8.5000E-09  1.1000E-09  1.1000E-09  1.1000E-09  1.1000E-09   0.000       0.000       0.000       0.000       0.000    
   6   8.5000E-09  5.2000E-09  2.1000E-09  1.1000E-09  1.5000E-09   0.000       0.000       0.000       0.000       0.000    
   7   8.5000E-09  5.2000E-09  2.1000E-09  1.2000E-09  2.0000E-09   0.000       0.000       0.000       0.000       0.000    
   8   5.0000E-10  5.2000E-09  2.1000E-09  1.2000E-09  5.0000E-09   0.000       0.000       0.000       0.000       0.000    
   9   5.0000E-10  5.2000E-09  2.1000E-09  1.2000E-09  5.0000E-09   0.000       0.000       0.000       0.000       0.000    
  10   5.0000E-10  5.2000E-09  2.1000E-09  1.2000E-09  5.8000E-09   0.000       0.000       0.000       0.000       0.000    
  11   1.0000E-10  1.1000E-09  1.1000E-09  1.2000E-09  5.0000E-09   0.000       0.000       0.000       0.000       0.000    
  12   1.1000E-09  1.1000E-09  1.1000E-09  1.1000E-09  2.0000E-09   0.000       0.000       0.000       0.000       0.000    
  13   1.1000E-09  2.2000E-09  2.2000E-09  2.1000E-09  1.0000E-09   0.000       0.000       0.000       0.000       0.000    
  14   2.0000E-10  5.5000E-09  5.5000E-09  5.2000E-09  1.0000E-09   0.000       0.000       0.000       0.000       0.000    
  15    0.000      8.8000E-09  8.8000E-09   0.000       0.000       0.000       0.000       0.000       0.000       0.000    

                  ET RATE =  5.000000E-10

 USING ET EXTINCTION DEPTH FROM PREVIOUS STRESS PERIOD. CURRENT PERIOD IS:      12

 USING EXTINCTION WATER CONTENT FROM PREVIOUS STRESS PERIOD. CURRENT PERIOD IS:      12

 USING AIR ENTRY PRESSURE FROM PREVIOUS STRESS PERIOD. CURRENT PERIOD IS:      12

 USING ROOT PRESSURE HEAD FROM PREVIOUS STRESS PERIOD. CURRENT PERIOD IS:      12

 USING ROOT ACTIVITY FROM PREVIOUS STRESS PERIOD. CURRENT PERIOD IS:      12

 PROCESSING AG STRESS PERIOD DATA

 READING AG STRESS PERIOD DATA

 READING IRRIGATION WELL

 END PROCESSING AG STRESS PERIOD DATA OPTIONS
 
 SOLVING FOR HEAD 
                                                   Max.-Head-Change                         Max.-Flux-Residual
  Residual-Control   Outer-Iter.   Inner-Iter.     Column Row Layer    Maximum-Head-Change  Column Row Layer    Maximum-Flux-Residual          L2-NORM 
          0                 1           2             4    7     1       0.3281242875E-01       4    7    1         0.1731136146E+01      0.3924879295E+01
          0                 2           2             4    7     1      -0.3190055258E-02       4    7    1        -0.1730216877E+00      0.3922618198E+00
          0                 3           2             4    7     1       0.2170677199E-03       4    7    1         0.1210241204E-01      0.2743681057E-01
          0                 4           1             4    7     1      -0.8626539302E-05       4    7    1        -0.4943704878E-03      0.1120771600E-02

    ------------------------------------------------
       NWT REQUIRED            4 OUTER ITERATIONS 
       AND A TOTAL OF          7 INNER ITERATIONS.
    ------------------------------------------------

 NO OUTPUT CONTROL FOR STRESS PERIOD   12   TIME STEP    1
 
 SOLVING FOR HEAD 
                                                   Max.-Head-Change                         Max.-Flux-Residual
  Residual-Control   Outer-Iter.   Inner-Iter.     Column Row Layer    Maximum-Head-Change  Column Row Layer    Maximum-Flux-Residual          L2-NORM 
          0                 1           2             4    7     1       0.3232370967E-01       4    7    1         0.1704885894E+01      0.3883091351E+01
          0                 2           2             4    7     1      -0.3142540729E-02       4    7    1        -0.1703979988E+00      0.3880705161E+00
          0                 3           2             4    7     1       0.2138345539E-03       4    7    1         0.1191888975E-01      0.2714224621E-01
          0                 4           1             4    7     1      -0.8498046653E-05       4    7    1        -0.4868736098E-03      0.1108615008E-02

    ------------------------------------------------
       NWT REQUIRED            4 OUTER ITERATIONS 
       AND A TOTAL OF          7 INNER ITERATIONS.
    ------------------------------------------------

 NO OUTPUT CONTROL FOR STRESS PERIOD   12   TIME STEP    2
 
 SOLVING FOR HEAD 
                                                   Max.-Head-Change                         Max.-Flux-Residual
  Residual-Control   Outer-Iter.   Inner-Iter.     Column Row Layer    Maximum-Head-Change  Column Row Layer    Maximum-Flux-Residual          L2-NORM 
          0                 1           2             4    7     1       0.3185042066E-01       4    7    1         0.1679487792E+01      0.3836051823E+01
          0                 2           2             4    7     1      -0.3096526379E-02       4    7    1        -0.1678594841E+00      0.3833798900E+00
          0                 3           2             4    7     1       0.2107034722E-03       4    7    1         0.1174132534E-01      0.2681517449E-01
          0                 4           1             4    7     1      -0.8373611447E-05       4    7    1        -0.4796201506E-03      0.1095325787E-02

    ------------------------------------------------
       NWT REQUIRED            4 OUTER ITERATIONS 
       AND A TOTAL OF          7 INNER ITERATIONS.
    ------------------------------------------------

 NO OUTPUT CONTROL FOR STRESS PERIOD   12   TIME STEP    3
 
 SOLVING FOR HEAD 
                                                   Max.-Head-Change                         Max.-Flux-Residual
  Residual-Control   Outer-Iter.   Inner-Iter.     Column Row Layer    Maximum-Head-Change  Column Row Layer    Maximum-Flux-Residual          L2-NORM 
          0                 1           2             4    7     1       0.3139189385E-01       4    7    1         0.1654904386E+01      0.3790287179E+01
          0                 2           2             4    7     1      -0.3051947236E-02       4    7    1        -0.1654023998E+00      0.3787856167E+00
          0                 3           2             4    7     1       0.2076700524E-03       4    7    1         0.1156945697E-01      0.2648028098E-01
          0                 4           1             4    7     1      -0.8253057883E-05       4    7    1        -0.4725993858E-03      0.1081894584E-02

    ------------------------------------------------
       NWT REQUIRED            4 OUTER ITERATIONS 
       AND A TOTAL OF          7 INNER ITERATIONS.
    ------------------------------------------------

 NO OUTPUT CONTROL FOR STRESS PERIOD   12   TIME STEP    4
 
 SOLVING FOR HEAD 
                                                   Max.-Head-Change                         Max.-Flux-Residual
  Residual-Control   Outer-Iter.   Inner-Iter.     Column Row Layer    Maximum-Head-Change  Column Row Layer    Maximum-Flux-Residual          L2-NORM 
          0                 1           2             4    7     1       0.3094698988E-01       4    7    1         0.1631071704E+01      0.3745705293E+01
          0                 2           2             4    7     1      -0.3008692573E-02       4    7    1        -0.1630203516E+00      0.3743671665E+00
          0                 3           2             4    7     1       0.2047267590E-03       4    7    1         0.1140283731E-01      0.2618620025E-01
          0                 4           1             4    7     1      -0.8136085708E-05       4    7    1        -0.4657930199E-03      0.1069710282E-02

    ------------------------------------------------
       NWT REQUIRED            4 OUTER ITERATIONS 
       AND A TOTAL OF          7 INNER ITERATIONS.
    ------------------------------------------------

 NO OUTPUT CONTROL FOR STRESS PERIOD   12   TIME STEP    5
 
 SOLVING FOR HEAD 
                                                   Max.-Head-Change                         Max.-Flux-Residual
  Residual-Control   Outer-Iter.   Inner-Iter.     Column Row Layer    Maximum-Head-Change  Column Row Layer    Maximum-Flux-Residual          L2-NORM 
          0                 1           2             4    7     1       0.3051517653E-01       4    7    1         0.1607960018E+01      0.3702211017E+01
          0                 2           2             4    7     1      -0.2966710646E-02       4    7    1        -0.1607103681E+00      0.3700271089E+00
          0                 3           2             4    7     1       0.2018700713E-03       4    7    1         0.1124125854E-01      0.2588336408E-01
          0                 4           1             4    7     1      -0.8022555618E-05       4    7    1        -0.4591925708E-03      0.1057245720E-02

    ------------------------------------------------
       NWT REQUIRED            4 OUTER ITERATIONS 
       AND A TOTAL OF          7 INNER ITERATIONS.
    ------------------------------------------------

 NO OUTPUT CONTROL FOR STRESS PERIOD   12   TIME STEP    6
 
 SOLVING FOR HEAD 
                                                   Max.-Head-Change                         Max.-Flux-Residual
  Residual-Control   Outer-Iter.   Inner-Iter.     Column Row Layer    Maximum-Head-Change  Column Row Layer    Maximum-Flux-Residual          L2-NORM 
          0                 1           2             4    7     1       0.3009570638E-01       4    7    1         0.1585527059E+01      0.3659757272E+01
          0                 2           2             4    7     1      -0.2925928785E-02       4    7    1        -0.1584682244E+00      0.3657898634E+00
          0                 3           2             4    7     1       0.1990950447E-03       4    7    1         0.1108442511E-01      0.2558739842E-01
          0                 4           1             4    7     1      -0.7912271551E-05       4    7    1        -0.4527859996E-03      0.1045353766E-02

    ------------------------------------------------
       NWT REQUIRED            4 OUTER ITERATIONS 
       AND A TOTAL OF          7 INNER ITERATIONS.
    ------------------------------------------------

 NO OUTPUT CONTROL FOR STRESS PERIOD   12   TIME STEP    7
 
 SOLVING FOR HEAD 
                                                   Max.-Head-Change                         Max.-Flux-Residual
  Residual-Control   Outer-Iter.   Inner-Iter.     Column Row Layer    Maximum-Head-Change  Column Row Layer    Maximum-Flux-Residual          L2-NORM 
          0                 1           2             4    7     1       0.2968775007E-01       4    7    1         0.1563726735E+01      0.3618270866E+01
          0                 2           2             4    7     1      -0.2886266355E-02       4    7    1        -0.1562893135E+00      0.3616486348E+00
          0                 3           2             4    7     1       0.1963961915E-03       4    7    1         0.1093201477E-01      0.2529827947E-01
          0                 4           1             4    7     1      -0.7805014074E-05       4    7    1        -0.4465600994E-03      0.1033632107E-02

    ------------------------------------------------
       NWT REQUIRED            4 OUTER ITERATIONS 
       AND A TOTAL OF          7 INNER ITERATIONS.
    ------------------------------------------------

 NO OUTPUT CONTROL FOR STRESS PERIOD   12   TIME STEP    8
 
 SOLVING FOR HEAD 
                                                   Max.-Head-Change                         Max.-Flux-Residual
  Residual-Control   Outer-Iter.   Inner-Iter.     Column Row Layer    Maximum-Head-Change  Column Row Layer    Maximum-Flux-Residual          L2-NORM 
          0                 1           2             4    7     1       0.2929080067E-01       4    7    1         0.1542530722E+01      0.3577686447E+01
          0                 2           2             4    7     1      -0.2847674067E-02       4    7    1        -0.1541708044E+00      0.3575964431E+00
          0                 3           2             4    7     1       0.1937701578E-03       4    7    1         0.1078382947E-01      0.2501521507E-01
          0                 4           1             4    7     1      -0.7700651019E-05       4    7    1        -0.4405067887E-03      0.1022061018E-02

    ------------------------------------------------
       NWT REQUIRED            4 OUTER ITERATIONS 
       AND A TOTAL OF          7 INNER ITERATIONS.
    ------------------------------------------------

 NO OUTPUT CONTROL FOR STRESS PERIOD   12   TIME STEP    9
 
 SOLVING FOR HEAD 
                                                   Max.-Head-Change                         Max.-Flux-Residual
  Residual-Control   Outer-Iter.   Inner-Iter.     Column Row Layer    Maximum-Head-Change  Column Row Layer    Maximum-Flux-Residual          L2-NORM 
          0                 1           2             4    7     1       0.2890426546E-01       4    7    1         0.1521905398E+01      0.3537974000E+01
          0                 2           2             4    7     1      -0.2810094295E-02       4    7    1        -0.1521093364E+00      0.3536313500E+00
          0                 3           2             4    7     1       0.1912130228E-03       4    7    1         0.1063963417E-01      0.2473815986E-01
          0                 4           1             4    7     1      -0.7599026044E-05       4    7    1        -0.4346164810E-03      0.1010664531E-02

    ------------------------------------------------
       NWT REQUIRED            4 OUTER ITERATIONS 
       AND A TOTAL OF          7 INNER ITERATIONS.
    ------------------------------------------------

 NO OUTPUT CONTROL FOR STRESS PERIOD   12   TIME STEP   10
 
 SOLVING FOR HEAD 
                                                   Max.-Head-Change                         Max.-Flux-Residual
  Residual-Control   Outer-Iter.   Inner-Iter.     Column Row Layer    Maximum-Head-Change  Column Row Layer    Maximum-Flux-Residual          L2-NORM 
          0                 1           2             4    7     1       0.2852772230E-01       4    7    1         0.1501827372E+01      0.3499084774E+01
          0                 2           2             4    7     1      -0.2773485996E-02       4    7    1        -0.1501025714E+00      0.3497478078E+00
          0                 3           2             4    7     1       0.1887219935E-03       4    7    1         0.1049926530E-01      0.2446683980E-01
          0                 4           1             4    7     1      -0.7500028166E-05       4    7    1        -0.4288824848E-03      0.9996330046E-03

    ------------------------------------------------
       NWT REQUIRED            4 OUTER ITERATIONS 
       AND A TOTAL OF          7 INNER ITERATIONS.
    ------------------------------------------------

 NO OUTPUT CONTROL FOR STRESS PERIOD   12   TIME STEP   11
 
 SOLVING FOR HEAD 
                                                   Max.-Head-Change                         Max.-Flux-Residual
  Residual-Control   Outer-Iter.   Inner-Iter.     Column Row Layer    Maximum-Head-Change  Column Row Layer    Maximum-Flux-Residual          L2-NORM 
          0                 1           2             4    7     1       0.2816051746E-01       4    7    1         0.1482260076E+01      0.3460971857E+01
          0                 2           2             4    7     1      -0.2737785608E-02       4    7    1        -0.1481468544E+00      0.3459412238E+00
          0                 3           2             4    7     1       0.1862927441E-03       4    7    1         0.1036246717E-01      0.2420083305E-01
          0                 4           1             4    7     1      -0.7403485844E-05       4    7    1        -0.4232943577E-03      0.9888448226E-03

    ------------------------------------------------
       NWT REQUIRED            4 OUTER ITERATIONS 
       AND A TOTAL OF          7 INNER ITERATIONS.
    ------------------------------------------------

 NO OUTPUT CONTROL FOR STRESS PERIOD   12   TIME STEP   12
 
 SOLVING FOR HEAD 
                                                   Max.-Head-Change                         Max.-Flux-Residual
  Residual-Control   Outer-Iter.   Inner-Iter.     Column Row Layer    Maximum-Head-Change  Column Row Layer    Maximum-Flux-Residual          L2-NORM 
          0                 1           2             4    7     1       0.2780217002E-01       4    7    1         0.1463176955E+01      0.3423599331E+01
          0                 2           2             4    7     1      -0.2702946377E-02       4    7    1        -0.1462395313E+00      0.3422085087E+00
          0                 3           2             4    7     1       0.1839220932E-03       4    7    1         0.1022905412E-01      0.2393998969E-01
          0                 4           1             4    7     1      -0.7309272784E-05       4    7    1        -0.4178445176E-03      0.9781975738E-03

    ------------------------------------------------
       NWT REQUIRED            4 OUTER ITERATIONS 
       AND A TOTAL OF          7 INNER ITERATIONS.
    ------------------------------------------------

 NO OUTPUT CONTROL FOR STRESS PERIOD   12   TIME STEP   13
 
 SOLVING FOR HEAD 
                                                   Max.-Head-Change                         Max.-Flux-Residual
  Residual-Control   Outer-Iter.   Inner-Iter.     Column Row Layer    Maximum-Head-Change  Column Row Layer    Maximum-Flux-Residual          L2-NORM 
          0                 1           2             4    7     1       0.2745237235E-01       4    7    1         0.1444560417E+01      0.3386940571E+01
          0                 2           2             4    7     1      -0.2668938389E-02       4    7    1        -0.1443788433E+00      0.3385465794E+00
          0                 3           2             4    7     1       0.1816080058E-03       4    7    1         0.1009890317E-01      0.2368399994E-01
          0                 4           1             4    7     1      -0.7217307245E-05       4    7    1        -0.4125279347E-03      0.9677280883E-03

    ------------------------------------------------
       NWT REQUIRED            4 OUTER ITERATIONS 
       AND A TOTAL OF          7 INNER ITERATIONS.
    ------------------------------------------------

 NO OUTPUT CONTROL FOR STRESS PERIOD   12   TIME STEP   14
 
 SOLVING FOR HEAD 
                                                   Max.-Head-Change                         Max.-Flux-Residual
  Residual-Control   Outer-Iter.   Inner-Iter.     Column Row Layer    Maximum-Head-Change  Column Row Layer    Maximum-Flux-Residual          L2-NORM 
          0                 1           2             4    7     1       0.2711070643E-01       4    7    1         0.1426387169E+01      0.3350963582E+01
          0                 2           2             4    7     1      -0.2635721003E-02       4    7    1        -0.1425624627E+00      0.3349525698E+00
          0                 3           2             4    7     1       0.1793477160E-03       4    7    1         0.9971851469E-02      0.2343277908E-01
          0                 4           1             4    7     1      -0.7127479856E-05       4    7    1        -0.4073379571E-03      0.9575430081E-03

    ------------------------------------------------
       NWT REQUIRED            4 OUTER ITERATIONS 
       AND A TOTAL OF          7 INNER ITERATIONS.
    ------------------------------------------------

 NO OUTPUT CONTROL FOR STRESS PERIOD   12   TIME STEP   15
 
 SOLVING FOR HEAD 
                                                   Max.-Head-Change                         Max.-Flux-Residual
  Residual-Control   Outer-Iter.   Inner-Iter.     Column Row Layer    Maximum-Head-Change  Column Row Layer    Maximum-Flux-Residual          L2-NORM 
          0                 1           2             4    7     1       0.2677678361E-01       4    7    1         0.1408635537E+01      0.3315641397E+01
          0                 2           2             4    7     1      -0.2603256434E-02       4    7    1        -0.1407882228E+00      0.3314237648E+00
          0                 3           2             4    7     1       0.1771386528E-03       4    7    1         0.9847747469E-02      0.2318611685E-01
          0                 4           1             4    7     1      -0.7039688384E-05       4    7    1        -0.4022683961E-03      0.9473820199E-03

    ------------------------------------------------
       NWT REQUIRED            4 OUTER ITERATIONS 
       AND A TOTAL OF          7 INNER ITERATIONS.
    ------------------------------------------------

 NO OUTPUT CONTROL FOR STRESS PERIOD   12   TIME STEP   16
 
 SOLVING FOR HEAD 
                                                   Max.-Head-Change                         Max.-Flux-Residual
  Residual-Control   Outer-Iter.   Inner-Iter.     Column Row Layer    Maximum-Head-Change  Column Row Layer    Maximum-Flux-Residual          L2-NORM 
          0                 1           2             4    7     1       0.2645023713E-01       4    7    1         0.1391285373E+01      0.3280940806E+01
          0                 2           2             4    7     1      -0.2571509022E-02       4    7    1        -0.1390541098E+00      0.3279568643E+00
          0                 3           2             4    7     1       0.1749783897E-03       4    7    1         0.9726450303E-02      0.2294370164E-01
          0                 4           1             4    7     1      -0.6953836350E-05       4    7    1        -0.3973135013E-03      0.9374872720E-03

    ------------------------------------------------
       NWT REQUIRED            4 OUTER ITERATIONS 
       AND A TOTAL OF          7 INNER ITERATIONS.
    ------------------------------------------------

 NO OUTPUT CONTROL FOR STRESS PERIOD   12   TIME STEP   17
 
 SOLVING FOR HEAD 
                                                   Max.-Head-Change                         Max.-Flux-Residual
  Residual-Control   Outer-Iter.   Inner-Iter.     Column Row Layer    Maximum-Head-Change  Column Row Layer    Maximum-Flux-Residual          L2-NORM 
          0                 1           2             4    7     1       0.2613073138E-01       4    7    1         0.1374317658E+01      0.3246857903E+01
          0                 2           2             4    7     1      -0.2540446135E-02       4    7    1        -0.1373582228E+00      0.3245514207E+00
          0                 3           2             4    7     1       0.1728647056E-03       4    7    1         0.9607826969E-02      0.2270557282E-01
          0                 4           1             4    7     1      -0.6869835339E-05       4    7    1        -0.3924678258E-03      0.9277750608E-03

    ------------------------------------------------
       NWT REQUIRED            4 OUTER ITERATIONS 
       AND A TOTAL OF          7 INNER ITERATIONS.
    ------------------------------------------------

 NO OUTPUT CONTROL FOR STRESS PERIOD   12   TIME STEP   18
 
 SOLVING FOR HEAD 
                                                   Max.-Head-Change                         Max.-Flux-Residual
  Residual-Control   Outer-Iter.   Inner-Iter.     Column Row Layer    Maximum-Head-Change  Column Row Layer    Maximum-Flux-Residual          L2-NORM 
          0                 1           2             4    7     1       0.2581794933E-01       4    7    1         0.1357714992E+01      0.3213352541E+01
          0                 2           2             4    7     1      -0.2510036952E-02       4    7    1        -0.1356988226E+00      0.3212036111E+00
          0                 3           2             4    7     1       0.1707955036E-03       4    7    1         0.9491755860E-02      0.2247146224E-01
          0                 4           1             4    7     1      -0.6787601996E-05       4    7    1        -0.3877263957E-03      0.9182205259E-03

    ------------------------------------------------
       NWT REQUIRED            4 OUTER ITERATIONS 
       AND A TOTAL OF          7 INNER ITERATIONS.
    ------------------------------------------------

 NO OUTPUT CONTROL FOR STRESS PERIOD   12   TIME STEP   19
 
 SOLVING FOR HEAD 
                                                   Max.-Head-Change                         Max.-Flux-Residual
  Residual-Control   Outer-Iter.   Inner-Iter.     Column Row Layer    Maximum-Head-Change  Column Row Layer    Maximum-Flux-Residual          L2-NORM 
          0                 1           2             4    7     1       0.2551173187E-01       4    7    1         0.1341468282E+01      0.3180417904E+01
          0                 2           2             4    7     1      -0.2480266003E-02       4    7    1        -0.1340750002E+00      0.3179126723E+00
          0                 3           2             4    7     1       0.1687697311E-03       4    7    1         0.9378173365E-02      0.2224138874E-01
          0                 4           1             4    7     1      -0.6707095223E-05       4    7    1        -0.3830866417E-03      0.9088483538E-03

    ------------------------------------------------
       NWT REQUIRED            4 OUTER ITERATIONS 
       AND A TOTAL OF          7 INNER ITERATIONS.
    ------------------------------------------------

 NO OUTPUT CONTROL FOR STRESS PERIOD   12   TIME STEP   20
 
 SOLVING FOR HEAD 
                                                   Max.-Head-Change                         Max.-Flux-Residual
  Residual-Control   Outer-Iter.   Inner-Iter.     Column Row Layer    Maximum-Head-Change  Column Row Layer    Maximum-Flux-Residual          L2-NORM 
          0                 1           2             4    7     1       0.2521166411E-01       4    7    1         0.1325554590E+01      0.3148027639E+01
          0                 2           2             4    7     1      -0.2451092949E-02       4    7    1        -0.1324844631E+00      0.3146760199E+00
          0                 3           2             4    7     1       0.1667846428E-03       4    7    1         0.9266919114E-02      0.2201503224E-01
          0                 4           1             4    7     1      -0.6628204956E-05       4    7    1        -0.3785419935E-03      0.8995773958E-03

    ------------------------------------------------
       NWT REQUIRED            4 OUTER ITERATIONS 
       AND A TOTAL OF          7 INNER ITERATIONS.
    ------------------------------------------------

 NO OUTPUT CONTROL FOR STRESS PERIOD   12   TIME STEP   21
 
 SOLVING FOR HEAD 
                                                   Max.-Head-Change                         Max.-Flux-Residual
  Residual-Control   Outer-Iter.   Inner-Iter.     Column Row Layer    Maximum-Head-Change  Column Row Layer    Maximum-Flux-Residual          L2-NORM 
          0                 1           2             4    7     1       0.2491748880E-01       4    7    1         0.1309959749E+01      0.3116167140E+01
          0                 2           2             4    7     1      -0.2422492780E-02       4    7    1        -0.1309257950E+00      0.3114923937E+00
          0                 3           2             4    7     1       0.1648385377E-03       4    7    1         0.9157894077E-02      0.2179264677E-01
          0                 4           1             4    7     1      -0.6550863845E-05       4    7    1        -0.3740884229E-03      0.8905945492E-03

    ------------------------------------------------
       NWT REQUIRED            4 OUTER ITERATIONS 
       AND A TOTAL OF          7 INNER ITERATIONS.
    ------------------------------------------------

 NO OUTPUT CONTROL FOR STRESS PERIOD   12   TIME STEP   22
 
 SOLVING FOR HEAD 
                                                   Max.-Head-Change                         Max.-Flux-Residual
  Residual-Control   Outer-Iter.   Inner-Iter.     Column Row Layer    Maximum-Head-Change  Column Row Layer    Maximum-Flux-Residual          L2-NORM 
          0                 1           2             4    7     1       0.2462923566E-01       4    7    1         0.1294685111E+01      0.3084827535E+01
          0                 2           2             4    7     1      -0.2394468385E-02       4    7    1        -0.1293991312E+00      0.3083603649E+00
          0                 3           2             4    7     1       0.1629316114E-03       4    7    1         0.9051107679E-02      0.2157335587E-01
          0                 4           1             4    7     1      -0.6475080412E-05       4    7    1        -0.3697262950E-03      0.8815334717E-03

    ------------------------------------------------
       NWT REQUIRED            4 OUTER ITERATIONS 
       AND A TOTAL OF          7 INNER ITERATIONS.
    ------------------------------------------------

 NO OUTPUT CONTROL FOR STRESS PERIOD   12   TIME STEP   23
 
 SOLVING FOR HEAD 
                                                   Max.-Head-Change                         Max.-Flux-Residual
  Residual-Control   Outer-Iter.   Inner-Iter.     Column Row Layer    Maximum-Head-Change  Column Row Layer    Maximum-Flux-Residual          L2-NORM 
          0                 1           2             4    7     1       0.2434626124E-01       4    7    1         0.1279695491E+01      0.3053982547E+01
          0                 2           2             4    7     1      -0.2366957203E-02       4    7    1        -0.1279009550E+00      0.3052778512E+00
          0                 3           2             4    7     1       0.1610596068E-03       4    7    1         0.8946313933E-02      0.2135784020E-01
          0                 4           1             4    7     1      -0.6400683920E-05       4    7    1        -0.3654455406E-03      0.8728581540E-03

    ------------------------------------------------
       NWT REQUIRED            4 OUTER ITERATIONS 
       AND A TOTAL OF          7 INNER ITERATIONS.
    ------------------------------------------------

 NO OUTPUT CONTROL FOR STRESS PERIOD   12   TIME STEP   24
 
 SOLVING FOR HEAD 
                                                   Max.-Head-Change                         Max.-Flux-Residual
  Residual-Control   Outer-Iter.   Inner-Iter.     Column Row Layer    Maximum-Head-Change  Column Row Layer    Maximum-Flux-Residual          L2-NORM 
          0                 1           2             4    7     1       0.2406876842E-01       4    7    1         0.1265001599E+01      0.3023625922E+01
          0                 2           2             4    7     1      -0.2339978961E-02       4    7    1        -0.1264323367E+00      0.3022440700E+00
          0                 3           2             4    7     1       0.1592238669E-03       4    7    1         0.8843587716E-02      0.2114560005E-01
          0                 4           1             4    7     1      -0.6327729287E-05       4    7    1        -0.3612492749E-03      0.8640990679E-03

    ------------------------------------------------
       NWT REQUIRED            4 OUTER ITERATIONS 
       AND A TOTAL OF          7 INNER ITERATIONS.
    ------------------------------------------------

 NO OUTPUT CONTROL FOR STRESS PERIOD   12   TIME STEP   25
 
 SOLVING FOR HEAD 
                                                   Max.-Head-Change                         Max.-Flux-Residual
  Residual-Control   Outer-Iter.   Inner-Iter.     Column Row Layer    Maximum-Head-Change  Column Row Layer    Maximum-Flux-Residual          L2-NORM 
          0                 1           2             4    7     1       0.2379641509E-01       4    7    1         0.1250584574E+01      0.2993752678E+01
          0                 2           2             4    7     1      -0.2313500396E-02       4    7    1        -0.1249913911E+00      0.2992585694E+00
          0                 3           2             4    7     1       0.1574221277E-03       4    7    1         0.8742797161E-02      0.2093681394E-01
          0                 4           1             4    7     1      -0.6256125791E-05       4    7    1        -0.3571320619E-03      0.8556141761E-03

    ------------------------------------------------
       NWT REQUIRED            4 OUTER ITERATIONS 
       AND A TOTAL OF          7 INNER ITERATIONS.
    ------------------------------------------------

 NO OUTPUT CONTROL FOR STRESS PERIOD   12   TIME STEP   26
 
 SOLVING FOR HEAD 
                                                   Max.-Head-Change                         Max.-Flux-Residual
  Residual-Control   Outer-Iter.   Inner-Iter.     Column Row Layer    Maximum-Head-Change  Column Row Layer    Maximum-Flux-Residual          L2-NORM 
          0                 1           2             4    7     1       0.2352887321E-01       4    7    1         0.1236426675E+01      0.2964327792E+01
          0                 2           2             4    7     1      -0.2287489615E-02       4    7    1        -0.1235763450E+00      0.2963178257E+00
          0                 3           2             4    7     1       0.1556522199E-03       4    7    1         0.8643818234E-02      0.2073109900E-01
          0                 4           1             4    7     1      -0.6185787547E-05       4    7    1        -0.3530888828E-03      0.8471514648E-03

    ------------------------------------------------
       NWT REQUIRED            4 OUTER ITERATIONS 
       AND A TOTAL OF          7 INNER ITERATIONS.
    ------------------------------------------------

 NO OUTPUT CONTROL FOR STRESS PERIOD   12   TIME STEP   27
 
 SOLVING FOR HEAD 
                                                   Max.-Head-Change                         Max.-Flux-Residual
  Residual-Control   Outer-Iter.   Inner-Iter.     Column Row Layer    Maximum-Head-Change  Column Row Layer    Maximum-Flux-Residual          L2-NORM 
          0                 1           2             4    7     1       0.2326610343E-01       4    7    1         0.1222525587E+01      0.2935353394E+01
          0                 2           2             4    7     1      -0.2261942792E-02       4    7    1        -0.1221869671E+00      0.2934220560E+00
          0                 3           2             4    7     1       0.1539138820E-03       4    7    1         0.8546634749E-02      0.2052854234E-01
          0                 4           1             4    7     1      -0.6116703619E-05       4    7    1        -0.3491190325E-03      0.8388732951E-03

    ------------------------------------------------
       NWT REQUIRED            4 OUTER ITERATIONS 
       AND A TOTAL OF          7 INNER ITERATIONS.
    ------------------------------------------------

 NO OUTPUT CONTROL FOR STRESS PERIOD   12   TIME STEP   28
 
 SOLVING FOR HEAD 
                                                   Max.-Head-Change                         Max.-Flux-Residual
  Residual-Control   Outer-Iter.   Inner-Iter.     Column Row Layer    Maximum-Head-Change  Column Row Layer    Maximum-Flux-Residual          L2-NORM 
          0                 1           2             4    7     1       0.2300807394E-01       4    7    1         0.1208879272E+01      0.2906827842E+01
          0                 2           2             4    7     1      -0.2236856833E-02       4    7    1        -0.1208230535E+00      0.2905710684E+00
          0                 3           2             4    7     1       0.1522069041E-03       4    7    1         0.8451232468E-02      0.2032909168E-01
          0                 4           1             4    7     1      -0.6048865717E-05       4    7    1        -0.3452219180E-03      0.8307135931E-03

    ------------------------------------------------
       NWT REQUIRED            4 OUTER ITERATIONS 
       AND A TOTAL OF          7 INNER ITERATIONS.
    ------------------------------------------------

 NO OUTPUT CONTROL FOR STRESS PERIOD   12   TIME STEP   29
 
 SOLVING FOR HEAD 
                                                   Max.-Head-Change                         Max.-Flux-Residual
  Residual-Control   Outer-Iter.   Inner-Iter.     Column Row Layer    Maximum-Head-Change  Column Row Layer    Maximum-Flux-Residual          L2-NORM 
          0                 1           2             4    7     1       0.2275447876E-01       4    7    1         0.1195471384E+01      0.2879875672E+01
          0                 2           2             4    7     1      -0.2212201992E-02       4    7    1        -0.1194829707E+00      0.2878738046E+00
          0                 3           2             4    7     1       0.1505292623E-03       4    7    1         0.8357497104E-02      0.2014012786E-01
          0                 4           1             4    7     1      -0.5982194517E-05       4    7    1        -0.3413929296E-03      0.8229819225E-03

    ------------------------------------------------
       NWT REQUIRED            4 OUTER ITERATIONS 
       AND A TOTAL OF          7 INNER ITERATIONS.
    ------------------------------------------------

 NO OUTPUT CONTROL FOR STRESS PERIOD   12   TIME STEP   30



 STREAM LISTING     PERIOD     12   STEP       30

 LAYER ROW COL. STREAM  RCH.  FLOW INTO     FLOW TO   FLOW OUT OF   OVRLND.     DIRECT     STREAM       STREAM     STREAM     STREAM   STREAMBED  STREAMBED
                SEG.NO.  NO.  STRM. RCH.    AQUIFER    STRM. RCH.    RUNOFF     PRECIP       ET          HEAD       DEPTH      WIDTH   CONDCTNC.   GRADIENT

   1    1    1     1     1    2.5441E+01  2.4717E-01   2.5194E+01  0.000E+00  0.000E+00  0.000E+00  1.09423E+03  1.185E+00  1.313E+01  5.906E-02  1.395E+00
   1    2    2     1     2    2.5194E+01  3.8224E-01   2.4811E+01  0.000E+00  0.000E+00  0.000E+00  1.08924E+03  1.180E+00  1.306E+01  9.144E-02  1.393E+00
   1    3    3     1     3    2.4811E+01  3.2545E-01   2.4486E+01  0.000E+00  0.000E+00  0.000E+00  1.08359E+03  1.175E+00  1.299E+01  7.795E-02  1.392E+00
   1    3    4     1     4    2.4486E+01  2.9925E-01   2.4187E+01  0.000E+00  0.000E+00  0.000E+00  1.07858E+03  1.170E+00  1.293E+01  7.176E-02  1.390E+00
   1    4    5     2     1    2.2187E+01  3.2130E-01   2.1865E+01  0.000E+00  0.000E+00  0.000E+00  1.07305E+03  1.119E+00  1.200E+01  7.800E-02  1.373E+00
   1    5    6     2     2    2.1865E+01  2.4663E-01   2.1619E+01  0.000E+00  0.000E+00  0.000E+00  1.06762E+03  1.111E+00  1.200E+01  6.000E-02  1.370E+00
   1    6    6     2     3    2.1619E+01  2.4618E-01   2.1373E+01  0.000E+00  0.000E+00  0.000E+00  1.06290E+03  1.103E+00  1.200E+01  6.000E-02  1.368E+00
   1    7    6     2     4    2.1373E+01  2.4572E-01   2.1127E+01  0.000E+00  0.000E+00  0.000E+00  1.05817E+03  1.095E+00  1.200E+01  6.000E-02  1.365E+00
   1    8    6     2     5    2.1127E+01  2.4527E-01   2.0882E+01  0.000E+00  0.000E+00  0.000E+00  1.05345E+03  1.088E+00  1.200E+01  6.000E-02  1.363E+00
   1    3    5     3     1    2.0000E+00  2.8252E-01   1.7175E+00  0.000E+00  0.000E+00  0.000E+00  1.07555E+03  1.909E+00  9.636E+00  7.227E-02  1.955E+00
   1    3    6     3     2    1.7175E+00  2.4905E-01   1.4684E+00  0.000E+00  0.000E+00  0.000E+00  1.07264E+03  1.727E+00  8.909E+00  6.682E-02  1.864E+00
   1    3    7     3     3    1.4684E+00  1.9718E-01   1.2712E+00  0.000E+00  0.000E+00  0.000E+00  1.06987E+03  1.555E+00  8.218E+00  5.547E-02  1.777E+00
   1    4    8     3     4    1.2712E+00  2.2567E-01   1.0456E+00  0.000E+00  0.000E+00  0.000E+00  1.06682E+03  1.364E+00  7.455E+00  6.709E-02  1.682E+00
   1    5    8     3     5    1.0456E+00  1.5790E-01   8.8768E-01  0.000E+00  0.000E+00  0.000E+00  1.06362E+03  1.164E+00  6.655E+00  4.991E-02  1.582E+00
   1    6    8     3     6    8.8768E-01  5.5980E-02   8.3170E-01  0.000E+00  0.000E+00  0.000E+00  1.06158E+03  1.036E+00  6.145E+00  1.844E-02  1.518E+00
   1    5   10     4     1    1.0000E+01  9.0919E-02   9.9091E+00  0.000E+00  0.000E+00  0.000E+00  1.07836E+03  6.368E-01  1.000E+01  2.500E-02  1.212E+00
   1    5    9     4     2    9.9091E+00  1.8158E-01   9.7275E+00  0.000E+00  0.000E+00  0.000E+00  1.07154E+03  6.315E-01  1.000E+01  5.000E-02  1.211E+00
   1    6    8     4     3    9.7275E+00  1.2689E-01   9.6006E+00  0.000E+00  0.000E+00  0.000E+00  1.06381E+03  6.256E-01  1.000E+01  3.500E-02  1.209E+00
   1    6    8     5     1    1.0432E+01  2.2686E-01   1.0205E+01  0.000E+00  0.000E+00  0.000E+00  1.05868E+03  6.790E-01  1.542E+01  6.166E-02  1.226E+00
   1    7    7     5     2    1.0205E+01  2.7894E-01   9.9265E+00  0.000E+00  0.000E+00  0.000E+00  1.05417E+03  6.732E-01  1.519E+01  7.594E-02  1.224E+00
   1    8    7     5     3    9.9265E+00  1.9221E-01   9.7343E+00  0.000E+00  0.000E+00  0.000E+00  1.04992E+03  6.676E-01  1.497E+01  5.241E-02  1.223E+00
   1    8    6     5     4    9.7343E+00  1.3577E-01   9.5985E+00  0.000E+00  0.000E+00  0.000E+00  1.04691E+03  6.637E-01  1.482E+01  3.706E-02  1.221E+00
   1    9    6     6     1    3.0480E+01  2.6230E-01   3.0218E+01  0.000E+00  0.000E+00  0.000E+00  1.04410E+03  1.372E+00  1.200E+01  6.000E-02  1.457E+00
   1   10    7     6     2    3.0218E+01  2.6187E-01   2.9956E+01  0.000E+00  0.000E+00  0.000E+00  1.03955E+03  1.365E+00  1.200E+01  6.000E-02  1.455E+00
   1   11    7     6     3    2.9956E+01  2.6145E-01   2.9695E+01  0.000E+00  0.000E+00  0.000E+00  1.03499E+03  1.357E+00  1.200E+01  6.000E-02  1.452E+00
   1   12    7     6     4    2.9695E+01  2.6102E-01   2.9434E+01  0.000E+00  0.000E+00  0.000E+00  1.03044E+03  1.350E+00  1.200E+01  6.000E-02  1.450E+00
   1   13    7     6     5    2.9434E+01  1.3737E-03   2.9432E+01  0.000E+00  0.000E+00  0.000E+00  1.02726E+03  1.347E+00  1.200E+01  2.400E-02  1.908E-02
   1   14    9     7     1    1.5000E+02  1.3299E+00   1.4867E+02  0.000E+00  0.000E+00  0.000E+00  1.03987E+03  2.288E+00  5.529E+01  5.593E-01  7.926E-01
   1   13    8     7     2    1.4867E+02  1.7968E+00   1.4687E+02  0.000E+00  0.000E+00  0.000E+00  1.03478E+03  2.279E+00  5.526E+01  6.148E-01  9.742E-01
   1   13    7     7     3    1.4687E+02  1.3916E+00   1.4548E+02  0.000E+00  0.000E+00  0.000E+00  1.02969E+03  2.271E+00  5.522E+01  5.585E-01  8.306E-01
   1   13    6     8     1    1.7491E+02  8.6645E-01   1.7405E+02  0.000E+00  0.000E+00  0.000E+00  1.02486E+03  2.981E+00  4.323E+01  4.405E-01  6.557E-01
   1   13    5     8     2    1.7405E+02  1.2482E-01   1.7392E+02  0.000E+00  0.000E+00  0.000E+00  1.01860E+03  2.978E+00  4.318E+01  4.400E-01  9.456E-02
   1   13    4     8     3    1.7392E+02 -2.6040E+00   1.7653E+02  0.000E+00  0.000E+00  0.000E+00  1.01236E+03  2.986E+00  4.330E+01  4.412E+00 -1.967E-01
   1   13    3     8     4    1.7653E+02 -3.7579E+00   1.8028E+02  0.000E+00  0.000E+00  0.000E+00  1.00613E+03  3.006E+00  4.359E+01  4.442E+00 -2.820E-01
   1   13    2     8     5    1.8028E+02 -2.6293E+00   1.8291E+02  0.000E+00  0.000E+00  0.000E+00  9.99901E+02  3.026E+00  4.388E+01  4.471E+00 -1.960E-01
   1   13    1     8     6    1.8291E+02 -2.0231E+00   1.8494E+02  0.000E+00  0.000E+00  0.000E+00  9.94916E+02  3.041E+00  4.409E+01  2.696E+00 -2.502E-01





UNSATURATED ZONE PACKAGE VOLUMETRIC BUDGET FOR  TIME STEP    30 STRESS PERIOD   12
  ------------------------------------------------------------------------------



     CUMULATIVE VOLUMES      L**3       RATES FOR THIS TIME STEP      L**3/T
     ------------------                 ------------------------

           IN:                                      IN:
           ---                                      ---
        INFILTRATION =   598066413.7893          INFILTRATION =           4.4075

          OUT:                                     OUT:
          ----                                     ----
              UZF ET =   497247761.4927                UZF ET =           0.7250
        UZF RECHARGE =    73018146.3129          UZF RECHARGE =           0.0003

            IN - OUT =    27800505.9837              IN - OUT =           3.6822

          STORAGE:                                 STORAGE:
          --------                                 --------
      STORAGE CHANGE =    27801073.6078        STORAGE CHANGE =           3.6822

 PERCENT DISCREPANCY IS DIFFERENCE BETWEEN IN-OUT MINUS CHANGE IN STORAGE
 DIVIDED BY THE AVERAGE OF IN AND OUT TIMES 100

 PERCENT DISCREPANCY =          -0.00     PERCENT DISCREPANCY =           0.00






1
  VOLUMETRIC BUDGET FOR AGRICULTURAL FIELDS AT TIME STEP   30, STRESS PERIOD  12
  ------------------------------------------------------------------------------

     CUMULATIVE VOLUMES      L**3       RATES FOR THIS TIME STEP      L**3/T
     ------------------                 ------------------------

           IN:                                      IN:
           ---                                      ---
               AG WELLS  =   470484032.0000                 AG WELLS  =           0.0000
      DIVERSION SEGMENTS =           0.0000        DIVERSION SEGMENTS =           0.0000
           GW IRRIGATION =           0.0000             GW IRRIGATION =           0.0000
           SW IRRIGATION =           0.0000             SW IRRIGATION =           0.0000
        SYSTEM LOSSES GW =           0.0000          SYSTEM LOSSES GW =           0.0000
        SYSTEM LOSSES SW =           0.0000          SYSTEM LOSSES SW =           0.0000

                TOTAL IN =   470484032.0000                  TOTAL IN =           0.0000

          OUT:                                     OUT:
          ----                                     ----
               AG WELLS  =           0.0000                 AG WELLS  =           0.0000
      DIVERSION SEGMENTS =           0.0000        DIVERSION SEGMENTS =           0.0000
           GW IRRIGATION =   470484032.0000             GW IRRIGATION =           0.0000
           SW IRRIGATION =           0.0000             SW IRRIGATION =           0.0000
        SYSTEM LOSSES GW =           0.0000          SYSTEM LOSSES GW =           0.0000
        SYSTEM LOSSES SW =           0.0000          SYSTEM LOSSES SW =           0.0000

               TOTAL OUT =   470484032.0000                 TOTAL OUT =           0.0000

                IN - OUT =           0.0000                  IN - OUT =           0.0000

     PERCENT DISCREPANCY =           0.00         PERCENT DISCREPANCY =           0.00



1
  VOLUMETRIC BUDGET FOR ENTIRE MODEL AT END OF TIME STEP   30, STRESS PERIOD  12
  ------------------------------------------------------------------------------

     CUMULATIVE VOLUMES      L**3       RATES FOR THIS TIME STEP      L**3/T
     ------------------                 ------------------------

           IN:                                      IN:
           ---                                      ---
             STORAGE     =   569356416.0000               STORAGE     =           8.6039
       CONSTANT HEAD     =           0.0000         CONSTANT HEAD     =           0.0000
     HEAD DEP BOUNDS     =     8282449.5000       HEAD DEP BOUNDS     =           0.2854
      STREAM LEAKAGE     =   364421760.0000        STREAM LEAKAGE     =          11.5182
        UZF RECHARGE     =    73018136.0000          UZF RECHARGE     =       2.8067E-04
               GW ET     =           0.0000                 GW ET     =           0.0000
     SURFACE LEAKAGE     =           0.0000       SURFACE LEAKAGE     =           0.0000
           AG WELLS      =           0.0000             AG WELLS      =           0.0000

                TOTAL IN =  1015078720.0000                  TOTAL IN =          20.4078

          OUT:                                     OUT:
          ----                                     ----
             STORAGE     =   222353072.0000               STORAGE     =           9.1022
       CONSTANT HEAD     =           0.0000         CONSTANT HEAD     =           0.0000
     HEAD DEP BOUNDS     =     8560274.0000       HEAD DEP BOUNDS     =           0.2913
      STREAM LEAKAGE     =   300082464.0000        STREAM LEAKAGE     =          11.0143
        UZF RECHARGE     =           0.0000          UZF RECHARGE     =           0.0000
               GW ET     =    13595227.0000                 GW ET     =           0.0000
     SURFACE LEAKAGE     =           0.0000       SURFACE LEAKAGE     =           0.0000
           AG WELLS      =   470484032.0000             AG WELLS      =           0.0000

               TOTAL OUT =  1015075072.0000                 TOTAL OUT =          20.4078

                IN - OUT =        3648.0000                  IN - OUT =       5.7220E-06

     PERCENT DISCREPANCY =           0.00         PERCENT DISCREPANCY =           0.00






         TIME SUMMARY AT END OF TIME STEP   30 IN STRESS PERIOD   12
                    SECONDS     MINUTES      HOURS       DAYS        YEARS
                    -----------------------------------------------------------
   TIME STEP LENGTH  87667.      1461.1      24.352      1.0147     2.77799E-03
 STRESS PERIOD TIME 2.63000E+06  43833.      730.56      30.440     8.33397E-02
         TOTAL TIME 2.90163E+07 4.83606E+05  8060.1      335.84     0.91947    
1
1
                            STRESS PERIOD NO.   13, LENGTH =   2630000.    
                            -----------------------------------------------

                              NUMBER OF TIME STEPS =    30

                               MULTIPLIER FOR DELT =     1.000

                            INITIAL TIME STEP SIZE =   87666.66    

 REUSING NON-PARAMETER GHB CELLS FROM LAST STRESS PERIOD

      2 GHB CELLS

 REUSING STREAM SEGMENT DATA FROM LAST STRESS PERIOD



            AREAL INFILTRATION RATE
 READING ON UNIT   19 WITH FORMAT: (10F4.0)            

            1           2           3           4           5           6           7           8           9          10
 ........................................................................................................................
   1   1.2000E-09   0.000       0.000       0.000       0.000       0.000       0.000       0.000       0.000       0.000    
   2   2.1000E-09  2.0000E-09  8.0000E-10  8.5000E-09   0.000       0.000       0.000       0.000       0.000       0.000    
   3   5.0000E-10  1.1000E-09  8.8000E-09  5.5000E-09   0.000       0.000       0.000       0.000       0.000       0.000    
   4   8.5000E-09  1.1000E-09  1.1000E-09  1.1000E-09  2.0000E-09   0.000       0.000       0.000       0.000       0.000    
   5   8.5000E-09  1.1000E-09  1.1000E-09  1.1000E-09  1.1000E-09   0.000       0.000       0.000       0.000       0.000    
   6   8.5000E-09  5.2000E-09  2.1000E-09  1.1000E-09  1.5000E-09   0.000       0.000       0.000       0.000       0.000    
   7   8.5000E-09  5.2000E-09  2.1000E-09  1.2000E-09  2.0000E-09   0.000       0.000       0.000       0.000       0.000    
   8   5.0000E-10  5.2000E-09  2.1000E-09  1.2000E-09  5.0000E-09   0.000       0.000       0.000       0.000       0.000    
   9   5.0000E-10  5.2000E-09  2.1000E-09  1.2000E-09  5.0000E-09   0.000       0.000       0.000       0.000       0.000    
  10   5.0000E-10  5.2000E-09  2.1000E-09  1.2000E-09  5.8000E-09   0.000       0.000       0.000       0.000       0.000    
  11   1.0000E-10  1.1000E-09  1.1000E-09  1.2000E-09  5.0000E-09   0.000       0.000       0.000       0.000       0.000    
  12   1.1000E-09  1.1000E-09  1.1000E-09  1.1000E-09  2.0000E-09   0.000       0.000       0.000       0.000       0.000    
  13   1.1000E-09  2.2000E-09  2.2000E-09  2.1000E-09  1.0000E-09   0.000       0.000       0.000       0.000       0.000    
  14   2.0000E-10  5.5000E-09  5.5000E-09  5.2000E-09  1.0000E-09   0.000       0.000       0.000       0.000       0.000    
  15    0.000      8.8000E-09  8.8000E-09   0.000       0.000       0.000       0.000       0.000       0.000       0.000    

                  ET RATE =  5.000000E-10

 USING ET EXTINCTION DEPTH FROM PREVIOUS STRESS PERIOD. CURRENT PERIOD IS:      13

 USING EXTINCTION WATER CONTENT FROM PREVIOUS STRESS PERIOD. CURRENT PERIOD IS:      13

 USING AIR ENTRY PRESSURE FROM PREVIOUS STRESS PERIOD. CURRENT PERIOD IS:      13

 USING ROOT PRESSURE HEAD FROM PREVIOUS STRESS PERIOD. CURRENT PERIOD IS:      13

 USING ROOT ACTIVITY FROM PREVIOUS STRESS PERIOD. CURRENT PERIOD IS:      13

 PROCESSING AG STRESS PERIOD DATA

 READING AG STRESS PERIOD DATA

 READING IRRIGATION WELL

 END PROCESSING AG STRESS PERIOD DATA OPTIONS
 
 SOLVING FOR HEAD 
                                                   Max.-Head-Change                         Max.-Flux-Residual
  Residual-Control   Outer-Iter.   Inner-Iter.     Column Row Layer    Maximum-Head-Change  Column Row Layer    Maximum-Flux-Residual          L2-NORM 
          0                 1           2             4    7     1       0.2250515273E-01       4    7    1         0.1182293408E+01      0.2859070397E+01
          0                 2           2             4    7     1      -0.2187962209E-02       4    7    1        -0.1181658674E+00      0.2857502772E+00
          0                 3           2             4    7     1       0.1488798632E-03       4    7    1         0.8265369096E-02      0.1998888719E-01
          0                 4           1             4    7     1      -0.5916645352E-05       4    7    1        -0.3376295958E-03      0.8168455225E-03

    ------------------------------------------------
       NWT REQUIRED            4 OUTER ITERATIONS 
       AND A TOTAL OF          7 INNER ITERATIONS.
    ------------------------------------------------

 NO OUTPUT CONTROL FOR STRESS PERIOD   13   TIME STEP    1
 
 SOLVING FOR HEAD 
                                                   Max.-Head-Change                         Max.-Flux-Residual
  Residual-Control   Outer-Iter.   Inner-Iter.     Column Row Layer    Maximum-Head-Change  Column Row Layer    Maximum-Flux-Residual          L2-NORM 
          0                 1           2             4    7     1       0.2225995667E-01       4    7    1         0.1169336779E+01      0.2831292909E+01
          0                 2           2             4    7     1      -0.2164123954E-02       4    7    1        -0.1168708875E+00      0.2829972052E+00
          0                 3           2             4    7     1       0.1472577861E-03       4    7    1         0.8174788583E-02      0.1979705984E-01
          0                 4           1             4    7     1      -0.5852181609E-05       4    7    1        -0.3339294663E-03      0.8088552049E-03

    ------------------------------------------------
       NWT REQUIRED            4 OUTER ITERATIONS 
       AND A TOTAL OF          7 INNER ITERATIONS.
    ------------------------------------------------

 NO OUTPUT CONTROL FOR STRESS PERIOD   13   TIME STEP    2
 
 SOLVING FOR HEAD 
                                                   Max.-Head-Change                         Max.-Flux-Residual
  Residual-Control   Outer-Iter.   Inner-Iter.     Column Row Layer    Maximum-Head-Change  Column Row Layer    Maximum-Flux-Residual          L2-NORM 
          0                 1           2             4    7     1       0.2201875715E-01       4    7    1         0.1156594282E+01      0.2803946478E+01
          0                 2           2             4    7     1      -0.2140674253E-02       4    7    1        -0.1155973099E+00      0.2802668077E+00
          0                 3           2             4    7     1       0.1456621488E-03       4    7    1         0.8085705128E-02      0.1960641267E-01
          0                 4           1             4    7     1      -0.5788769327E-05       4    7    1        -0.3302905011E-03      0.8010909903E-03

    ------------------------------------------------
       NWT REQUIRED            4 OUTER ITERATIONS 
       AND A TOTAL OF          7 INNER ITERATIONS.
    ------------------------------------------------

 NO OUTPUT CONTROL FOR STRESS PERIOD   13   TIME STEP    3
 
 SOLVING FOR HEAD 
                                                   Max.-Head-Change                         Max.-Flux-Residual
  Residual-Control   Outer-Iter.   Inner-Iter.     Column Row Layer    Maximum-Head-Change  Column Row Layer    Maximum-Flux-Residual          L2-NORM 
          0                 1           2             4    7     1       0.2178156604E-01       4    7    1         0.1144066346E+01      0.2777052368E+01
          0                 2           2             4    7     1      -0.2117614259E-02       4    7    1        -0.1143451775E+00      0.2775811791E+00
          0                 3           2             4    7     1       0.1440930295E-03       4    7    1         0.7998121732E-02      0.1941872569E-01
          0                 4           1             4    7     1      -0.5726410462E-05       4    7    1        -0.3267128104E-03      0.7933847529E-03

    ------------------------------------------------
       NWT REQUIRED            4 OUTER ITERATIONS 
       AND A TOTAL OF          7 INNER ITERATIONS.
    ------------------------------------------------

 NO OUTPUT CONTROL FOR STRESS PERIOD   13   TIME STEP    4
 
 SOLVING FOR HEAD 
                                                   Max.-Head-Change                         Max.-Flux-Residual
  Residual-Control   Outer-Iter.   Inner-Iter.     Column Row Layer    Maximum-Head-Change  Column Row Layer    Maximum-Flux-Residual          L2-NORM 
          0                 1           2             4    7     1       0.2154826256E-01       4    7    1         0.1131746240E+01      0.2750588173E+01
          0                 2           2             4    7     1      -0.2094932229E-02       4    7    1        -0.1131138174E+00      0.2749380997E+00
          0                 3           2             4    7     1       0.1425496285E-03       4    7    1         0.7911991288E-02      0.1923407321E-01
          0                 4           1             4    7     1      -0.5665074276E-05       4    7    1        -0.3231944809E-03      0.7859179794E-03

    ------------------------------------------------
       NWT REQUIRED            4 OUTER ITERATIONS 
       AND A TOTAL OF          7 INNER ITERATIONS.
    ------------------------------------------------

 NO OUTPUT CONTROL FOR STRESS PERIOD   13   TIME STEP    5
 
 SOLVING FOR HEAD 
                                                   Max.-Head-Change                         Max.-Flux-Residual
  Residual-Control   Outer-Iter.   Inner-Iter.     Column Row Layer    Maximum-Head-Change  Column Row Layer    Maximum-Flux-Residual          L2-NORM 
          0                 1           2             4    7     1       0.2131859267E-01       4    7    1         0.1119620351E+01      0.2724534211E+01
          0                 2           2             4    7     1      -0.2072603467E-02       4    7    1        -0.1119018690E+00      0.2723359015E+00
          0                 3           2             4    7     1       0.1410302655E-03       4    7    1         0.7827218659E-02      0.1905218271E-01
          0                 4           1             4    7     1      -0.5604692497E-05       4    7    1        -0.3197315864E-03      0.7785328519E-03

    ------------------------------------------------
       NWT REQUIRED            4 OUTER ITERATIONS 
       AND A TOTAL OF          7 INNER ITERATIONS.
    ------------------------------------------------

 NO OUTPUT CONTROL FOR STRESS PERIOD   13   TIME STEP    6
 
 SOLVING FOR HEAD 
                                                   Max.-Head-Change                         Max.-Flux-Residual
  Residual-Control   Outer-Iter.   Inner-Iter.     Column Row Layer    Maximum-Head-Change  Column Row Layer    Maximum-Flux-Residual          L2-NORM 
          0                 1           2             4    7     1       0.2109245137E-01       4    7    1         0.1107682856E+01      0.2698878036E+01
          0                 2           2             4    7     1      -0.2050617763E-02       4    7    1        -0.1107087505E+00      0.2697731313E+00
          0                 3           2             4    7     1       0.1395342468E-03       4    7    1         0.7743763161E-02      0.1887304270E-01
          0                 4           1             4    7     1      -0.5545239108E-05       4    7    1        -0.3163225203E-03      0.7711156491E-03

    ------------------------------------------------
       NWT REQUIRED            4 OUTER ITERATIONS 
       AND A TOTAL OF          7 INNER ITERATIONS.
    ------------------------------------------------

 NO OUTPUT CONTROL FOR STRESS PERIOD   13   TIME STEP    7
 
 SOLVING FOR HEAD 
                                                   Max.-Head-Change                         Max.-Flux-Residual
  Residual-Control   Outer-Iter.   Inner-Iter.     Column Row Layer    Maximum-Head-Change  Column Row Layer    Maximum-Flux-Residual          L2-NORM 
          0                 1           2             4    7     1       0.2087001020E-01       4    7    1         0.1095943014E+01      0.2673622467E+01
          0                 2           2             4    7     1      -0.2028991793E-02       4    7    1        -0.1095353870E+00      0.2672502934E+00
          0                 3           2             4    7     1       0.1380627062E-03       4    7    1         0.7661689470E-02      0.1869674530E-01
          0                 4           1             4    7     1      -0.5486758431E-05       4    7    1        -0.3129699123E-03      0.7639973747E-03

    ------------------------------------------------
       NWT REQUIRED            4 OUTER ITERATIONS 
       AND A TOTAL OF          7 INNER ITERATIONS.
    ------------------------------------------------

 NO OUTPUT CONTROL FOR STRESS PERIOD   13   TIME STEP    8
 
 SOLVING FOR HEAD 
                                                   Max.-Head-Change                         Max.-Flux-Residual
  Residual-Control   Outer-Iter.   Inner-Iter.     Column Row Layer    Maximum-Head-Change  Column Row Layer    Maximum-Flux-Residual          L2-NORM 
          0                 1           2             4    7     1       0.2065075915E-01       4    7    1         0.1084372965E+01      0.2648730132E+01
          0                 2           2             4    7     1      -0.2007675975E-02       4    7    1        -0.1083789941E+00      0.2647606149E+00
          0                 3           2             4    7     1       0.1366122701E-03       4    7    1         0.7580802838E-02      0.1852265209E-01
          0                 4           1             4    7     1      -0.5429116344E-05       4    7    1        -0.3096657758E-03      0.7568606237E-03

    ------------------------------------------------
       NWT REQUIRED            4 OUTER ITERATIONS 
       AND A TOTAL OF          7 INNER ITERATIONS.
    ------------------------------------------------

 NO OUTPUT CONTROL FOR STRESS PERIOD   13   TIME STEP    9
 
 SOLVING FOR HEAD 
                                                   Max.-Head-Change                         Max.-Flux-Residual
  Residual-Control   Outer-Iter.   Inner-Iter.     Column Row Layer    Maximum-Head-Change  Column Row Layer    Maximum-Flux-Residual          L2-NORM 
          0                 1           2             4    7     1       0.2043501926E-01       4    7    1         0.1072990370E+01      0.2624214573E+01
          0                 2           2             4    7     1      -0.1986701518E-02       4    7    1        -0.1072413370E+00      0.2623145937E+00
          0                 3           2             4    7     1       0.1351850615E-03       4    7    1         0.7501226735E-02      0.1835169603E-01
          0                 4           1             4    7     1      -0.5372397005E-05       4    7    1        -0.3064151613E-03      0.7498613732E-03

    ------------------------------------------------
       NWT REQUIRED            4 OUTER ITERATIONS 
       AND A TOTAL OF          7 INNER ITERATIONS.
    ------------------------------------------------

 NO OUTPUT CONTROL FOR STRESS PERIOD   13   TIME STEP   10
 
 SOLVING FOR HEAD 
                                                   Max.-Head-Change                         Max.-Flux-Residual
  Residual-Control   Outer-Iter.   Inner-Iter.     Column Row Layer    Maximum-Head-Change  Column Row Layer    Maximum-Flux-Residual          L2-NORM 
          0                 1           2             4    7     1       0.2022242533E-01       4    7    1         0.1061775121E+01      0.2600052890E+01
          0                 2           2             4    7     1      -0.1966032918E-02       4    7    1        -0.1061204058E+00      0.2599005081E+00
          0                 3           2             4    7     1       0.1337786652E-03       4    7    1         0.7422820561E-02      0.1818291094E-01
          0                 4           1             4    7     1      -0.5316505203E-05       4    7    1        -0.3032123554E-03      0.7430182184E-03

    ------------------------------------------------
       NWT REQUIRED            4 OUTER ITERATIONS 
       AND A TOTAL OF          7 INNER ITERATIONS.
    ------------------------------------------------

 NO OUTPUT CONTROL FOR STRESS PERIOD   13   TIME STEP   11
 
 SOLVING FOR HEAD 
                                                   Max.-Head-Change                         Max.-Flux-Residual
  Residual-Control   Outer-Iter.   Inner-Iter.     Column Row Layer    Maximum-Head-Change  Column Row Layer    Maximum-Flux-Residual          L2-NORM 
          0                 1           2             4    7     1       0.2001316531E-01       4    7    1         0.1050737686E+01      0.2576244216E+01
          0                 2           2             4    7     1      -0.1945688449E-02       4    7    1        -0.1050172470E+00      0.2575215248E+00
          0                 3           2             4    7     1       0.1323943249E-03       4    7    1         0.7345657526E-02      0.1801659576E-01
          0                 4           1             4    7     1      -0.5261489983E-05       4    7    1        -0.3000603474E-03      0.7362073816E-03

    ------------------------------------------------
       NWT REQUIRED            4 OUTER ITERATIONS 
       AND A TOTAL OF          7 INNER ITERATIONS.
    ------------------------------------------------

 NO OUTPUT CONTROL FOR STRESS PERIOD   13   TIME STEP   12
 
 SOLVING FOR HEAD 
                                                   Max.-Head-Change                         Max.-Flux-Residual
  Residual-Control   Outer-Iter.   Inner-Iter.     Column Row Layer    Maximum-Head-Change  Column Row Layer    Maximum-Flux-Residual          L2-NORM 
          0                 1           2             4    7     1       0.1980687865E-01       4    7    1         0.1039858406E+01      0.2552773276E+01
          0                 2           2             4    7     1      -0.1925633054E-02       4    7    1        -0.1039298954E+00      0.2551763370E+00
          0                 3           2             4    7     1       0.1310296543E-03       4    7    1         0.7269600176E-02      0.1785253845E-01
          0                 4           1             4    7     1      -0.5207256248E-05       4    7    1        -0.2969534696E-03      0.7294898618E-03

    ------------------------------------------------
       NWT REQUIRED            4 OUTER ITERATIONS 
       AND A TOTAL OF          7 INNER ITERATIONS.
    ------------------------------------------------

 NO OUTPUT CONTROL FOR STRESS PERIOD   13   TIME STEP   13
 
 SOLVING FOR HEAD 
                                                   Max.-Head-Change                         Max.-Flux-Residual
  Residual-Control   Outer-Iter.   Inner-Iter.     Column Row Layer    Maximum-Head-Change  Column Row Layer    Maximum-Flux-Residual          L2-NORM 
          0                 1           2             4    7     1       0.1960362873E-01       4    7    1         0.1029140641E+01      0.2529626039E+01
          0                 2           2             4    7     1      -0.1905872899E-02       4    7    1        -0.1028586869E+00      0.2528633845E+00
          0                 3           2             4    7     1       0.1296850737E-03       4    7    1         0.7194671994E-02      0.1769083675E-01
          0                 4           1             4    7     1      -0.5153821384E-05       4    7    1        -0.2938927489E-03      0.7229377985E-03

    ------------------------------------------------
       NWT REQUIRED            4 OUTER ITERATIONS 
       AND A TOTAL OF          7 INNER ITERATIONS.
    ------------------------------------------------

 NO OUTPUT CONTROL FOR STRESS PERIOD   13   TIME STEP   14
 
 SOLVING FOR HEAD 
                                                   Max.-Head-Change                         Max.-Flux-Residual
  Residual-Control   Outer-Iter.   Inner-Iter.     Column Row Layer    Maximum-Head-Change  Column Row Layer    Maximum-Flux-Residual          L2-NORM 
          0                 1           2             4    7     1       0.1940334410E-01       4    7    1         0.1018580325E+01      0.2506805370E+01
          0                 2           2             4    7     1      -0.1886401034E-02       4    7    1        -0.1018032153E+00      0.2505828690E+00
          0                 3           2             4    7     1       0.1283601097E-03       4    7    1         0.7120844587E-02      0.1753134192E-01
          0                 4           1             4    7     1      -0.5101165589E-05       4    7    1        -0.2908769666E-03      0.7164037062E-03

    ------------------------------------------------
       NWT REQUIRED            4 OUTER ITERATIONS 
       AND A TOTAL OF          7 INNER ITERATIONS.
    ------------------------------------------------

 NO OUTPUT CONTROL FOR STRESS PERIOD   13   TIME STEP   15
 
 SOLVING FOR HEAD 
                                                   Max.-Head-Change                         Max.-Flux-Residual
  Residual-Control   Outer-Iter.   Inner-Iter.     Column Row Layer    Maximum-Head-Change  Column Row Layer    Maximum-Flux-Residual          L2-NORM 
          0                 1           2             4    7     1       0.1920594793E-01       4    7    1         0.1008173755E+01      0.2484301076E+01
          0                 2           2             4    7     1      -0.1867209992E-02       4    7    1        -0.1007631102E+00      0.2483340042E+00
          0                 3           2             4    7     1       0.1270542549E-03       4    7    1         0.7048092032E-02      0.1737402641E-01
          0                 4           1             4    7     1      -0.5049269405E-05       4    7    1        -0.2879051185E-03      0.7099748321E-03

    ------------------------------------------------
       NWT REQUIRED            4 OUTER ITERATIONS 
       AND A TOTAL OF          7 INNER ITERATIONS.
    ------------------------------------------------

 NO OUTPUT CONTROL FOR STRESS PERIOD   13   TIME STEP   16
 
 SOLVING FOR HEAD 
                                                   Max.-Head-Change                         Max.-Flux-Residual
  Residual-Control   Outer-Iter.   Inner-Iter.     Column Row Layer    Maximum-Head-Change  Column Row Layer    Maximum-Flux-Residual          L2-NORM 
          0                 1           2             4    7     1       0.1901137399E-01       4    7    1         0.9979169458E+00      0.2462108321E+01
          0                 2           2             4    7     1      -0.1848293331E-02       4    7    1        -0.9973797351E-01      0.2461162555E+00
          0                 3           2             4    7     1       0.1257670700E-03       4    7    1         0.6976386456E-02      0.1721892487E-01
          0                 4           1             4    7     1      -0.4998115334E-05       4    7    1        -0.2849760367E-03      0.7036228656E-03

    ------------------------------------------------
       NWT REQUIRED            4 OUTER ITERATIONS 
       AND A TOTAL OF          7 INNER ITERATIONS.
    ------------------------------------------------

 NO OUTPUT CONTROL FOR STRESS PERIOD   13   TIME STEP   17
 
 SOLVING FOR HEAD 
                                                   Max.-Head-Change                         Max.-Flux-Residual
  Residual-Control   Outer-Iter.   Inner-Iter.     Column Row Layer    Maximum-Head-Change  Column Row Layer    Maximum-Flux-Residual          L2-NORM 
          0                 1           2             4    7     1       0.1881955716E-01       4    7    1         0.9878064646E+00      0.2440217579E+01
          0                 2           2             4    7     1      -0.1829644722E-02       4    7    1        -0.9872746198E-01      0.2439285852E+00
          0                 3           2             4    7     1       0.1244981245E-03       4    7    1         0.6905703882E-02      0.1706597479E-01
          0                 4           1             4    7     1      -0.4947685761E-05       4    7    1        -0.2820887230E-03      0.6974147517E-03

    ------------------------------------------------
       NWT REQUIRED            4 OUTER ITERATIONS 
       AND A TOTAL OF          7 INNER ITERATIONS.
    ------------------------------------------------

 NO OUTPUT CONTROL FOR STRESS PERIOD   13   TIME STEP   18
 
 SOLVING FOR HEAD 
                                                   Max.-Head-Change                         Max.-Flux-Residual
  Residual-Control   Outer-Iter.   Inner-Iter.     Column Row Layer    Maximum-Head-Change  Column Row Layer    Maximum-Flux-Residual          L2-NORM 
          0                 1           2             4    7     1       0.1863043018E-01       4    7    1         0.9778389345E+00      0.2418616041E+01
          0                 2           2             4    7     1      -0.1811257624E-02       4    7    1        -0.9773123817E-01      0.2417697916E+00
          0                 3           2             4    7     1       0.1232469739E-03       4    7    1         0.6836020714E-02      0.1691501178E-01
          0                 4           1             4    7     1      -0.4897963647E-05       4    7    1        -0.2792422429E-03      0.6912457126E-03

    ------------------------------------------------
       NWT REQUIRED            4 OUTER ITERATIONS 
       AND A TOTAL OF          7 INNER ITERATIONS.
    ------------------------------------------------

 NO OUTPUT CONTROL FOR STRESS PERIOD   13   TIME STEP   19
 
 SOLVING FOR HEAD 
                                                   Max.-Head-Change                         Max.-Flux-Residual
  Residual-Control   Outer-Iter.   Inner-Iter.     Column Row Layer    Maximum-Head-Change  Column Row Layer    Maximum-Flux-Residual          L2-NORM 
          0                 1           2             4    7     1       0.1844407178E-01       4    7    1         0.9680182221E+00      0.2397313814E+01
          0                 2           2             4    7     1      -0.1793139694E-02       4    7    1        -0.9674968846E-01      0.2396408637E+00
          0                 3           2             4    7     1       0.1220141391E-03       4    7    1         0.6767363973E-02      0.1676607591E-01
          0                 4           1             4    7     1      -0.4848969600E-05       4    7    1        -0.2764376973E-03      0.6851366335E-03

    ------------------------------------------------
       NWT REQUIRED            4 OUTER ITERATIONS 
       AND A TOTAL OF          7 INNER ITERATIONS.
    ------------------------------------------------

 NO OUTPUT CONTROL FOR STRESS PERIOD   13   TIME STEP   20
 
 SOLVING FOR HEAD 
                                                   Max.-Head-Change                         Max.-Flux-Residual
  Residual-Control   Outer-Iter.   Inner-Iter.     Column Row Layer    Maximum-Head-Change  Column Row Layer    Maximum-Flux-Residual          L2-NORM 
          0                 1           2             4    7     1       0.1826027855E-01       4    7    1         0.9583337026E+00      0.2376291188E+01
          0                 2           2             4    7     1      -0.1775271152E-02       4    7    1        -0.9578175098E-01      0.2375398282E+00
          0                 3           2             4    7     1       0.1207982737E-03       4    7    1         0.6699659353E-02      0.1661911189E-01
          0                 4           1             4    7     1      -0.4800649510E-05       4    7    1        -0.2736720446E-03      0.6791561396E-03

    ------------------------------------------------
       NWT REQUIRED            4 OUTER ITERATIONS 
       AND A TOTAL OF          7 INNER ITERATIONS.
    ------------------------------------------------

 NO OUTPUT CONTROL FOR STRESS PERIOD   13   TIME STEP   21
 
 SOLVING FOR HEAD 
                                                   Max.-Head-Change                         Max.-Flux-Residual
  Residual-Control   Outer-Iter.   Inner-Iter.     Column Row Layer    Maximum-Head-Change  Column Row Layer    Maximum-Flux-Residual          L2-NORM 
          0                 1           2             4    7     1       0.1807899555E-01       4    7    1         0.9487821817E+00      0.2355551906E+01
          0                 2           2             4    7     1      -0.1757646661E-02       4    7    1        -0.9482710644E-01      0.2354671213E+00
          0                 3           2             4    7     1       0.1195990143E-03       4    7    1         0.6632884526E-02      0.1647416608E-01
          0                 4           1             4    7     1      -0.4752989447E-05       4    7    1        -0.2709443565E-03      0.6732353342E-03

    ------------------------------------------------
       NWT REQUIRED            4 OUTER ITERATIONS 
       AND A TOTAL OF          7 INNER ITERATIONS.
    ------------------------------------------------

 NO OUTPUT CONTROL FOR STRESS PERIOD   13   TIME STEP   22
 
 SOLVING FOR HEAD 
                                                   Max.-Head-Change                         Max.-Flux-Residual
  Residual-Control   Outer-Iter.   Inner-Iter.     Column Row Layer    Maximum-Head-Change  Column Row Layer    Maximum-Flux-Residual          L2-NORM 
          0                 1           2             4    7     1       0.1790016998E-01       4    7    1         0.9393608122E+00      0.2335069455E+01
          0                 2           2             4    7     1      -0.1740261084E-02       4    7    1        -0.9388547026E-01      0.2334199948E+00
          0                 3           1             4    7     1       0.1184160151E-03       4    7    1         0.6567019643E-02      0.1633099014E-01
          0                 4           1             4    7     1      -0.4705978127E-05       4    7    1        -0.2682538463E-03      0.6673982750E-03

    ------------------------------------------------
       NWT REQUIRED            4 OUTER ITERATIONS 
       AND A TOTAL OF          6 INNER ITERATIONS.
    ------------------------------------------------

 NO OUTPUT CONTROL FOR STRESS PERIOD   13   TIME STEP   23
 
 SOLVING FOR HEAD 
                                                   Max.-Head-Change                         Max.-Flux-Residual
  Residual-Control   Outer-Iter.   Inner-Iter.     Column Row Layer    Maximum-Head-Change  Column Row Layer    Maximum-Flux-Residual          L2-NORM 
          0                 1           2             4    7     1       0.1772375283E-01       4    7    1         0.9300668555E+00      0.2314872551E+01
          0                 2           2             4    7     1      -0.1723109955E-02       4    7    1        -0.9295656868E-01      0.2314242573E+00
          0                 3           1             4    7     1       0.1172489661E-03       4    7    1         0.6502045487E-02      0.1619070039E-01
          0                 4           1             4    7     1      -0.4659598398E-05       4    7    1        -0.2655997382E-03      0.6632907003E-03

    ------------------------------------------------
       NWT REQUIRED            4 OUTER ITERATIONS 
       AND A TOTAL OF          6 INNER ITERATIONS.
    ------------------------------------------------

 NO OUTPUT CONTROL FOR STRESS PERIOD   13   TIME STEP   24
 
 SOLVING FOR HEAD 
                                                   Max.-Head-Change                         Max.-Flux-Residual
  Residual-Control   Outer-Iter.   Inner-Iter.     Column Row Layer    Maximum-Head-Change  Column Row Layer    Maximum-Flux-Residual          L2-NORM 
          0                 1           2             4    7     1       0.1754982391E-01       4    7    1         0.9209051114E+00      0.2294918339E+01
          0                 2           2             4    7     1      -0.1706200142E-02       4    7    1        -0.9204088150E-01      0.2294070942E+00
          0                 3           1             4    7     1       0.1160983377E-03       4    7    1         0.6437995667E-02      0.1605026785E-01
          0                 4           1             4    7     1      -0.4613871097E-05       4    7    1        -0.2629833696E-03      0.6558894340E-03

    ------------------------------------------------
       NWT REQUIRED            4 OUTER ITERATIONS 
       AND A TOTAL OF          6 INNER ITERATIONS.
    ------------------------------------------------

 NO OUTPUT CONTROL FOR STRESS PERIOD   13   TIME STEP   25
 
 SOLVING FOR HEAD 
                                                   Max.-Head-Change                         Max.-Flux-Residual
  Residual-Control   Outer-Iter.   Inner-Iter.     Column Row Layer    Maximum-Head-Change  Column Row Layer    Maximum-Flux-Residual          L2-NORM 
          0                 1           2             4    7     1       0.1737832931E-01       4    7    1         0.9118724094E+00      0.2275187374E+01
          0                 2           2             4    7     1      -0.1689527294E-02       4    7    1        -0.9113809181E-01      0.2274350765E+00
          0                 3           1             4    7     1       0.1149638335E-03       4    7    1         0.6374847976E-02      0.1591234262E-01
          0                 4           1             4    7     1      -0.4568784595E-05       4    7    1        -0.2604038591E-03      0.6502525850E-03

    ------------------------------------------------
       NWT REQUIRED            4 OUTER ITERATIONS 
       AND A TOTAL OF          6 INNER ITERATIONS.
    ------------------------------------------------

 NO OUTPUT CONTROL FOR STRESS PERIOD   13   TIME STEP   26
 
 SOLVING FOR HEAD 
                                                   Max.-Head-Change                         Max.-Flux-Residual
  Residual-Control   Outer-Iter.   Inner-Iter.     Column Row Layer    Maximum-Head-Change  Column Row Layer    Maximum-Flux-Residual          L2-NORM 
          0                 1           2             4    7     1       0.1720908083E-01       4    7    1         0.9029585509E+00      0.2255718384E+01
          0                 2           2             4    7     1      -0.1673072818E-02       4    7    1        -0.9024718026E-01      0.2254891385E+00
          0                 3           1             4    7     1       0.1138441884E-03       4    7    1         0.6312531140E-02      0.1577621161E-01
          0                 4           1             4    7     1      -0.4524288469E-05       4    7    1        -0.2578582869E-03      0.6447040743E-03

    ------------------------------------------------
       NWT REQUIRED            4 OUTER ITERATIONS 
       AND A TOTAL OF          6 INNER ITERATIONS.
    ------------------------------------------------

 NO OUTPUT CONTROL FOR STRESS PERIOD   13   TIME STEP   27
 
 SOLVING FOR HEAD 
                                                   Max.-Head-Change                         Max.-Flux-Residual
  Residual-Control   Outer-Iter.   Inner-Iter.     Column Row Layer    Maximum-Head-Change  Column Row Layer    Maximum-Flux-Residual          L2-NORM 
          0                 1           2             4    7     1       0.1704203531E-01       4    7    1         0.8941611497E+00      0.2236494284E+01
          0                 2           2             4    7     1      -0.1656832517E-02       4    7    1        -0.8936790836E-01      0.2235677240E+00
          0                 3           1             4    7     1       0.1127391170E-03       4    7    1         0.6251028458E-02      0.1564179701E-01
          0                 4           1             4    7     1      -0.4480371894E-05       4    7    1        -0.2553459872E-03      0.6392115890E-03

    ------------------------------------------------
       NWT REQUIRED            4 OUTER ITERATIONS 
       AND A TOTAL OF          6 INNER ITERATIONS.
    ------------------------------------------------

 NO OUTPUT CONTROL FOR STRESS PERIOD   13   TIME STEP   28
 
 SOLVING FOR HEAD 
                                                   Max.-Head-Change                         Max.-Flux-Residual
  Residual-Control   Outer-Iter.   Inner-Iter.     Column Row Layer    Maximum-Head-Change  Column Row Layer    Maximum-Flux-Residual          L2-NORM 
          0                 1           2             4    7     1       0.1687728484E-01       4    7    1         0.8854853253E+00      0.2217521979E+01
          0                 2           2             4    7     1      -0.1640815344E-02       4    7    1        -0.8850078778E-01      0.2216714249E+00
          0                 3           1             4    7     1       0.1116492283E-03       4    7    1         0.6190375743E-02      0.1550915457E-01
          0                 4           1             4    7     1      -0.4437058588E-05       4    7    1        -0.2528683881E-03      0.6337843668E-03

    ------------------------------------------------
       NWT REQUIRED            4 OUTER ITERATIONS 
       AND A TOTAL OF          6 INNER ITERATIONS.
    ------------------------------------------------

 NO OUTPUT CONTROL FOR STRESS PERIOD   13   TIME STEP   29
 
 SOLVING FOR HEAD 
                                                   Max.-Head-Change                         Max.-Flux-Residual
  Residual-Control   Outer-Iter.   Inner-Iter.     Column Row Layer    Maximum-Head-Change  Column Row Layer    Maximum-Flux-Residual          L2-NORM 
          0                 1           2             4    7     1       0.1671464282E-01       4    7    1         0.8769211379E+00      0.2198788583E+01
          0                 2           2             4    7     1      -0.1625003157E-02       4    7    1        -0.8764482505E-01      0.2197990326E+00
          0                 3           1             4    7     1       0.1105732878E-03       4    7    1         0.6130503485E-02      0.1537814322E-01
          0                 4           1             4    7     1      -0.4394299277E-05       4    7    1        -0.2504226793E-03      0.6284351772E-03

    ------------------------------------------------
       NWT REQUIRED            4 OUTER ITERATIONS 
       AND A TOTAL OF          6 INNER ITERATIONS.
    ------------------------------------------------

 NO OUTPUT CONTROL FOR STRESS PERIOD   13   TIME STEP   30



 STREAM LISTING     PERIOD     13   STEP       30

 LAYER ROW COL. STREAM  RCH.  FLOW INTO     FLOW TO   FLOW OUT OF   OVRLND.     DIRECT     STREAM       STREAM     STREAM     STREAM   STREAMBED  STREAMBED
                SEG.NO.  NO.  STRM. RCH.    AQUIFER    STRM. RCH.    RUNOFF     PRECIP       ET          HEAD       DEPTH      WIDTH   CONDCTNC.   GRADIENT

   1    1    1     1     1    2.3000E+01  2.3574E-01   2.2764E+01  0.000E+00  0.000E+00  0.000E+00  1.09420E+03  1.148E+00  1.263E+01  5.684E-02  1.383E+00
   1    2    2     1     2    2.2764E+01  3.6445E-01   2.2400E+01  0.000E+00  0.000E+00  0.000E+00  1.08920E+03  1.143E+00  1.257E+01  8.797E-02  1.381E+00
   1    3    3     1     3    2.2400E+01  3.1019E-01   2.2089E+01  0.000E+00  0.000E+00  0.000E+00  1.08356E+03  1.138E+00  1.250E+01  7.497E-02  1.379E+00
   1    3    4     1     4    2.2089E+01  2.8513E-01   2.1804E+01  0.000E+00  0.000E+00  0.000E+00  1.07854E+03  1.133E+00  1.243E+01  6.899E-02  1.378E+00
   1    4    5     2     1    1.9804E+01  3.1551E-01   1.9489E+01  0.000E+00  0.000E+00  0.000E+00  1.07298E+03  1.045E+00  1.200E+01  7.800E-02  1.348E+00
   1    5    6     2     2    1.9489E+01  2.4216E-01   1.9247E+01  0.000E+00  0.000E+00  0.000E+00  1.06755E+03  1.036E+00  1.200E+01  6.000E-02  1.345E+00
   1    6    6     2     3    1.9247E+01  2.4170E-01   1.9005E+01  0.000E+00  0.000E+00  0.000E+00  1.06282E+03  1.028E+00  1.200E+01  6.000E-02  1.343E+00
   1    7    6     2     4    1.9005E+01  2.4123E-01   1.8764E+01  0.000E+00  0.000E+00  0.000E+00  1.05810E+03  1.020E+00  1.200E+01  6.000E-02  1.340E+00
   1    8    6     2     5    1.8764E+01  2.4076E-01   1.8523E+01  0.000E+00  0.000E+00  0.000E+00  1.05337E+03  1.013E+00  1.200E+01  6.000E-02  1.338E+00
   1    3    5     3     1    2.0000E+00  2.8252E-01   1.7175E+00  0.000E+00  0.000E+00  0.000E+00  1.07555E+03  1.909E+00  9.636E+00  7.227E-02  1.955E+00
   1    3    6     3     2    1.7175E+00  2.4905E-01   1.4684E+00  0.000E+00  0.000E+00  0.000E+00  1.07264E+03  1.727E+00  8.909E+00  6.682E-02  1.864E+00
   1    3    7     3     3    1.4684E+00  1.9718E-01   1.2712E+00  0.000E+00  0.000E+00  0.000E+00  1.06987E+03  1.555E+00  8.218E+00  5.547E-02  1.777E+00
   1    4    8     3     4    1.2712E+00  2.2567E-01   1.0456E+00  0.000E+00  0.000E+00  0.000E+00  1.06682E+03  1.364E+00  7.455E+00  6.709E-02  1.682E+00
   1    5    8     3     5    1.0456E+00  1.5790E-01   8.8768E-01  0.000E+00  0.000E+00  0.000E+00  1.06362E+03  1.164E+00  6.655E+00  4.991E-02  1.582E+00
   1    6    8     3     6    8.8768E-01  5.5980E-02   8.3170E-01  0.000E+00  0.000E+00  0.000E+00  1.06158E+03  1.036E+00  6.145E+00  1.844E-02  1.518E+00
   1    5   10     4     1    1.0000E+01  9.0919E-02   9.9091E+00  0.000E+00  0.000E+00  0.000E+00  1.07836E+03  6.368E-01  1.000E+01  2.500E-02  1.212E+00
   1    5    9     4     2    9.9091E+00  1.8158E-01   9.7275E+00  0.000E+00  0.000E+00  0.000E+00  1.07154E+03  6.315E-01  1.000E+01  5.000E-02  1.211E+00
   1    6    8     4     3    9.7275E+00  1.2689E-01   9.6006E+00  0.000E+00  0.000E+00  0.000E+00  1.06381E+03  6.256E-01  1.000E+01  3.500E-02  1.209E+00
   1    6    8     5     1    1.0432E+01  2.2686E-01   1.0205E+01  0.000E+00  0.000E+00  0.000E+00  1.05868E+03  6.790E-01  1.542E+01  6.166E-02  1.226E+00
   1    7    7     5     2    1.0205E+01  2.7894E-01   9.9265E+00  0.000E+00  0.000E+00  0.000E+00  1.05417E+03  6.732E-01  1.519E+01  7.594E-02  1.224E+00
   1    8    7     5     3    9.9265E+00  1.9221E-01   9.7343E+00  0.000E+00  0.000E+00  0.000E+00  1.04992E+03  6.676E-01  1.497E+01  5.241E-02  1.223E+00
   1    8    6     5     4    9.7343E+00  1.3577E-01   9.5985E+00  0.000E+00  0.000E+00  0.000E+00  1.04691E+03  6.637E-01  1.482E+01  3.706E-02  1.221E+00
   1    9    6     6     1    2.8121E+01  2.5841E-01   2.7863E+01  0.000E+00  0.000E+00  0.000E+00  1.04403E+03  1.307E+00  1.200E+01  6.000E-02  1.436E+00
   1   10    7     6     2    2.7863E+01  2.5797E-01   2.7605E+01  0.000E+00  0.000E+00  0.000E+00  1.03948E+03  1.300E+00  1.200E+01  6.000E-02  1.433E+00
   1   11    7     6     3    2.7605E+01  2.5753E-01   2.7348E+01  0.000E+00  0.000E+00  0.000E+00  1.03493E+03  1.292E+00  1.200E+01  6.000E-02  1.431E+00
   1   12    7     6     4    2.7348E+01  2.5710E-01   2.7090E+01  0.000E+00  0.000E+00  0.000E+00  1.03038E+03  1.285E+00  1.200E+01  6.000E-02  1.428E+00
   1   13    7     6     5    2.7090E+01  5.1168E-04   2.7090E+01  0.000E+00  0.000E+00  0.000E+00  1.02719E+03  1.281E+00  1.200E+01  2.400E-02  7.107E-03
   1   14    9     7     1    1.5000E+02  1.3296E+00   1.4867E+02  0.000E+00  0.000E+00  0.000E+00  1.03987E+03  2.288E+00  5.529E+01  5.593E-01  7.924E-01
   1   13    8     7     2    1.4867E+02  1.8011E+00   1.4687E+02  0.000E+00  0.000E+00  0.000E+00  1.03478E+03  2.279E+00  5.526E+01  6.148E-01  9.766E-01
   1   13    7     7     3    1.4687E+02  1.4080E+00   1.4546E+02  0.000E+00  0.000E+00  0.000E+00  1.02969E+03  2.271E+00  5.522E+01  5.585E-01  8.404E-01
   1   13    6     8     1    1.7255E+02  8.7678E-01   1.7167E+02  0.000E+00  0.000E+00  0.000E+00  1.02484E+03  2.966E+00  4.301E+01  4.382E-01  6.669E-01
   1   13    5     8     2    1.7167E+02  1.3921E-01   1.7154E+02  0.000E+00  0.000E+00  0.000E+00  1.01859E+03  2.963E+00  4.296E+01  4.378E-01  1.060E-01
   1   13    4     8     3    1.7154E+02 -2.5419E+00   1.7408E+02  0.000E+00  0.000E+00  0.000E+00  1.01235E+03  2.970E+00  4.307E+01  4.389E+00 -1.930E-01
   1   13    3     8     4    1.7408E+02 -3.7186E+00   1.7780E+02  0.000E+00  0.000E+00  0.000E+00  1.00612E+03  2.990E+00  4.336E+01  4.419E+00 -2.805E-01
   1   13    2     8     5    1.7780E+02 -2.6041E+00   1.8040E+02  0.000E+00  0.000E+00  0.000E+00  9.99885E+02  3.010E+00  4.365E+01  4.448E+00 -1.951E-01
   1   13    1     8     6    1.8040E+02 -2.0003E+00   1.8240E+02  0.000E+00  0.000E+00  0.000E+00  9.94900E+02  3.025E+00  4.386E+01  2.682E+00 -2.486E-01





UNSATURATED ZONE PACKAGE VOLUMETRIC BUDGET FOR  TIME STEP    30 STRESS PERIOD   13
  ------------------------------------------------------------------------------



     CUMULATIVE VOLUMES      L**3       RATES FOR THIS TIME STEP      L**3/T
     ------------------                 ------------------------

           IN:                                      IN:
           ---                                      ---
        INFILTRATION =   609658138.3474          INFILTRATION =           4.4075

          OUT:                                     OUT:
          ----                                     ----
              UZF ET =   499154511.3704                UZF ET =           0.7250
        UZF RECHARGE =    73018782.6436          UZF RECHARGE =           0.0002

            IN - OUT =    37484844.3334              IN - OUT =           3.6823

          STORAGE:                                 STORAGE:
          --------                                 --------
      STORAGE CHANGE =    37485411.8891        STORAGE CHANGE =           3.6823

 PERCENT DISCREPANCY IS DIFFERENCE BETWEEN IN-OUT MINUS CHANGE IN STORAGE
 DIVIDED BY THE AVERAGE OF IN AND OUT TIMES 100

 PERCENT DISCREPANCY =          -0.00     PERCENT DISCREPANCY =           0.00






1
  VOLUMETRIC BUDGET FOR AGRICULTURAL FIELDS AT TIME STEP   30, STRESS PERIOD  13
  ------------------------------------------------------------------------------

     CUMULATIVE VOLUMES      L**3       RATES FOR THIS TIME STEP      L**3/T
     ------------------                 ------------------------

           IN:                                      IN:
           ---                                      ---
               AG WELLS  =   470484032.0000                 AG WELLS  =           0.0000
      DIVERSION SEGMENTS =           0.0000        DIVERSION SEGMENTS =           0.0000
           GW IRRIGATION =           0.0000             GW IRRIGATION =           0.0000
           SW IRRIGATION =           0.0000             SW IRRIGATION =           0.0000
        SYSTEM LOSSES GW =           0.0000          SYSTEM LOSSES GW =           0.0000
        SYSTEM LOSSES SW =           0.0000          SYSTEM LOSSES SW =           0.0000

                TOTAL IN =   470484032.0000                  TOTAL IN =           0.0000

          OUT:                                     OUT:
          ----                                     ----
               AG WELLS  =           0.0000                 AG WELLS  =           0.0000
      DIVERSION SEGMENTS =           0.0000        DIVERSION SEGMENTS =           0.0000
           GW IRRIGATION =   470484032.0000             GW IRRIGATION =           0.0000
           SW IRRIGATION =           0.0000             SW IRRIGATION =           0.0000
        SYSTEM LOSSES GW =           0.0000          SYSTEM LOSSES GW =           0.0000
        SYSTEM LOSSES SW =           0.0000          SYSTEM LOSSES SW =           0.0000

               TOTAL OUT =   470484032.0000                 TOTAL OUT =           0.0000

                IN - OUT =           0.0000                  IN - OUT =           0.0000

     PERCENT DISCREPANCY =           0.00         PERCENT DISCREPANCY =           0.00



1
  VOLUMETRIC BUDGET FOR ENTIRE MODEL AT END OF TIME STEP   30, STRESS PERIOD  13
  ------------------------------------------------------------------------------

     CUMULATIVE VOLUMES      L**3       RATES FOR THIS TIME STEP      L**3/T
     ------------------                 ------------------------

           IN:                                      IN:
           ---                                      ---
             STORAGE     =   589500224.0000               STORAGE     =           6.7312
       CONSTANT HEAD     =           0.0000         CONSTANT HEAD     =           0.0000
     HEAD DEP BOUNDS     =     9032902.0000       HEAD DEP BOUNDS     =           0.2853
      STREAM LEAKAGE     =   394493504.0000        STREAM LEAKAGE     =          11.4645
        UZF RECHARGE     =    73018784.0000          UZF RECHARGE     =       2.1005E-04
               GW ET     =           0.0000                 GW ET     =           0.0000
     SURFACE LEAKAGE     =           0.0000       SURFACE LEAKAGE     =           0.0000
           AG WELLS      =           0.0000             AG WELLS      =           0.0000

                TOTAL IN =  1066045440.0000                  TOTAL IN =          18.4813

          OUT:                                     OUT:
          ----                                     ----
             STORAGE     =   243672464.0000               STORAGE     =           7.3259
       CONSTANT HEAD     =           0.0000         CONSTANT HEAD     =           0.0000
     HEAD DEP BOUNDS     =     9325163.0000       HEAD DEP BOUNDS     =           0.2905
      STREAM LEAKAGE     =   328964960.0000        STREAM LEAKAGE     =          10.8648
        UZF RECHARGE     =           0.0000          UZF RECHARGE     =           0.0000
               GW ET     =    13595227.0000                 GW ET     =           0.0000
     SURFACE LEAKAGE     =           0.0000       SURFACE LEAKAGE     =           0.0000
           AG WELLS      =   470484032.0000             AG WELLS      =           0.0000

               TOTAL OUT =  1066041856.0000                 TOTAL OUT =          18.4813

                IN - OUT =        3584.0000                  IN - OUT =       5.7220E-06

     PERCENT DISCREPANCY =           0.00         PERCENT DISCREPANCY =           0.00






         TIME SUMMARY AT END OF TIME STEP   30 IN STRESS PERIOD   13
                    SECONDS     MINUTES      HOURS       DAYS        YEARS
                    -----------------------------------------------------------
   TIME STEP LENGTH  87667.      1461.1      24.352      1.0147     2.77799E-03
 STRESS PERIOD TIME 2.63000E+06  43833.      730.56      30.440     8.33397E-02
         TOTAL TIME 3.16463E+07 5.27439E+05  8790.6      366.28      1.0028    
1
1
                            STRESS PERIOD NO.   14, LENGTH =   2630000.    
                            -----------------------------------------------

                              NUMBER OF TIME STEPS =    30

                               MULTIPLIER FOR DELT =     1.000

                            INITIAL TIME STEP SIZE =   87666.66    

 REUSING NON-PARAMETER GHB CELLS FROM LAST STRESS PERIOD

      2 GHB CELLS

 REUSING STREAM SEGMENT DATA FROM LAST STRESS PERIOD



            AREAL INFILTRATION RATE
 READING ON UNIT   19 WITH FORMAT: (10F4.0)            

            1           2           3           4           5           6           7           8           9          10
 ........................................................................................................................
   1   1.2000E-09   0.000       0.000       0.000       0.000       0.000       0.000       0.000       0.000       0.000    
   2   2.1000E-09  2.0000E-09  8.0000E-10  8.5000E-09   0.000       0.000       0.000       0.000       0.000       0.000    
   3   5.0000E-10  1.1000E-09  8.8000E-09  5.5000E-09   0.000       0.000       0.000       0.000       0.000       0.000    
   4   8.5000E-09  1.1000E-09  1.1000E-09  1.1000E-09  2.0000E-09   0.000       0.000       0.000       0.000       0.000    
   5   8.5000E-09  1.1000E-09  1.1000E-09  1.1000E-09  1.1000E-09   0.000       0.000       0.000       0.000       0.000    
   6   8.5000E-09  5.2000E-09  2.1000E-09  1.1000E-09  1.5000E-09   0.000       0.000       0.000       0.000       0.000    
   7   8.5000E-09  5.2000E-09  2.1000E-09  1.2000E-09  2.0000E-09   0.000       0.000       0.000       0.000       0.000    
   8   5.0000E-10  5.2000E-09  2.1000E-09  1.2000E-09  5.0000E-09   0.000       0.000       0.000       0.000       0.000    
   9   5.0000E-10  5.2000E-09  2.1000E-09  1.2000E-09  5.0000E-09   0.000       0.000       0.000       0.000       0.000    
  10   5.0000E-10  5.2000E-09  2.1000E-09  1.2000E-09  5.8000E-09   0.000       0.000       0.000       0.000       0.000    
  11   1.0000E-10  1.1000E-09  1.1000E-09  1.2000E-09  5.0000E-09   0.000       0.000       0.000       0.000       0.000    
  12   1.1000E-09  1.1000E-09  1.1000E-09  1.1000E-09  2.0000E-09   0.000       0.000       0.000       0.000       0.000    
  13   1.1000E-09  2.2000E-09  2.2000E-09  2.1000E-09  1.0000E-09   0.000       0.000       0.000       0.000       0.000    
  14   2.0000E-10  5.5000E-09  5.5000E-09  5.2000E-09  1.0000E-09   0.000       0.000       0.000       0.000       0.000    
  15    0.000      8.8000E-09  8.8000E-09   0.000       0.000       0.000       0.000       0.000       0.000       0.000    

                  ET RATE =  5.000000E-10

 USING ET EXTINCTION DEPTH FROM PREVIOUS STRESS PERIOD. CURRENT PERIOD IS:      14

 USING EXTINCTION WATER CONTENT FROM PREVIOUS STRESS PERIOD. CURRENT PERIOD IS:      14

 USING AIR ENTRY PRESSURE FROM PREVIOUS STRESS PERIOD. CURRENT PERIOD IS:      14

 USING ROOT PRESSURE HEAD FROM PREVIOUS STRESS PERIOD. CURRENT PERIOD IS:      14

 USING ROOT ACTIVITY FROM PREVIOUS STRESS PERIOD. CURRENT PERIOD IS:      14

 PROCESSING AG STRESS PERIOD DATA

 READING AG STRESS PERIOD DATA

 READING IRRIGATION WELL

 END PROCESSING AG STRESS PERIOD DATA OPTIONS
 
 SOLVING FOR HEAD 
                                                   Max.-Head-Change                         Max.-Flux-Residual
  Residual-Control   Outer-Iter.   Inner-Iter.     Column Row Layer    Maximum-Head-Change  Column Row Layer    Maximum-Flux-Residual          L2-NORM 
          0                 1           2             4    7     1       0.1655419459E-01       4    7    1         0.8684736270E+00      0.2184055134E+01
          0                 2           2             4    7     1      -0.1609404255E-02       4    7    1        -0.8680052395E-01      0.2182511576E+00
          0                 3           1             4    7     1       0.1095118604E-03       4    7    1         0.6071446916E-02      0.1526885842E-01
          0                 4           1             4    7     1      -0.4352116984E-05       4    7    1        -0.2480102953E-03      0.6238913675E-03

    ------------------------------------------------
       NWT REQUIRED            4 OUTER ITERATIONS 
       AND A TOTAL OF          6 INNER ITERATIONS.
    ------------------------------------------------

 NO OUTPUT CONTROL FOR STRESS PERIOD   14   TIME STEP    1
 
 SOLVING FOR HEAD 
                                                   Max.-Head-Change                         Max.-Flux-Residual
  Residual-Control   Outer-Iter.   Inner-Iter.     Column Row Layer    Maximum-Head-Change  Column Row Layer    Maximum-Flux-Residual          L2-NORM 
          0                 1           2             4    7     1       0.1639587518E-01       4    7    1         0.8601398608E+00      0.2176165208E+01
          0                 2           2             4    7     1      -0.1594012322E-02       4    7    1        -0.8596759143E-01      0.2174930829E+00
          0                 3           1             4    7     1       0.1084645162E-03       4    7    1         0.6013185573E-02      0.1521283580E-01
          0                 4           1             4    7     1      -0.4310494442E-05       4    7    1        -0.2456303857E-03      0.6210022687E-03

    ------------------------------------------------
       NWT REQUIRED            4 OUTER ITERATIONS 
       AND A TOTAL OF          6 INNER ITERATIONS.
    ------------------------------------------------

 NO OUTPUT CONTROL FOR STRESS PERIOD   14   TIME STEP    2
 
 SOLVING FOR HEAD 
                                                   Max.-Head-Change                         Max.-Flux-Residual
  Residual-Control   Outer-Iter.   Inner-Iter.     Column Row Layer    Maximum-Head-Change  Column Row Layer    Maximum-Flux-Residual          L2-NORM 
          0                 1           2             4    7     1       0.1623950697E-01       4    7    1         0.8519091126E+00      0.2157232595E+01
          0                 2           2             4    7     1      -0.1578810086E-02       4    7    1        -0.8514495530E-01      0.2156057138E+00
          0                 3           1             4    7     1       0.1074300802E-03       4    7    1         0.5955644442E-02      0.1508112768E-01
          0                 4           1             4    7     1      -0.4269384909E-05       4    7    1        -0.2432799004E-03      0.6159942942E-03

    ------------------------------------------------
       NWT REQUIRED            4 OUTER ITERATIONS 
       AND A TOTAL OF          6 INNER ITERATIONS.
    ------------------------------------------------

 NO OUTPUT CONTROL FOR STRESS PERIOD   14   TIME STEP    3
 
 SOLVING FOR HEAD 
                                                   Max.-Head-Change                         Max.-Flux-Residual
  Residual-Control   Outer-Iter.   Inner-Iter.     Column Row Layer    Maximum-Head-Change  Column Row Layer    Maximum-Flux-Residual          L2-NORM 
          0                 1           2             4    7     1       0.1608519217E-01       4    7    1         0.8437868883E+00      0.2138639998E+01
          0                 2           2             4    7     1      -0.1563807486E-02       4    7    1        -0.8433316589E-01      0.2137519500E+00
          0                 3           1             4    7     1       0.1064092280E-03       4    7    1         0.5898861988E-02      0.1495187599E-01
          0                 4           1             4    7     1      -0.4228814634E-05       4    7    1        -0.2409604012E-03      0.6107799205E-03

    ------------------------------------------------
       NWT REQUIRED            4 OUTER ITERATIONS 
       AND A TOTAL OF          6 INNER ITERATIONS.
    ------------------------------------------------

 NO OUTPUT CONTROL FOR STRESS PERIOD   14   TIME STEP    4
 
 SOLVING FOR HEAD 
                                                   Max.-Head-Change                         Max.-Flux-Residual
  Residual-Control   Outer-Iter.   Inner-Iter.     Column Row Layer    Maximum-Head-Change  Column Row Layer    Maximum-Flux-Residual          L2-NORM 
          0                 1           2             4    7     1       0.1593289221E-01       4    7    1         0.8357711300E+00      0.2120373092E+01
          0                 2           2             4    7     1      -0.1549000773E-02       4    7    1        -0.8353201750E-01      0.2119299711E+00
          0                 3           1             4    7     1       0.1054017054E-03       4    7    1         0.5842823871E-02      0.1482483539E-01
          0                 4           1             4    7     1      -0.4188774751E-05       4    7    1        -0.2386713074E-03      0.6056061168E-03

    ------------------------------------------------
       NWT REQUIRED            4 OUTER ITERATIONS 
       AND A TOTAL OF          6 INNER ITERATIONS.
    ------------------------------------------------

 NO OUTPUT CONTROL FOR STRESS PERIOD   14   TIME STEP    5
 
 SOLVING FOR HEAD 
                                                   Max.-Head-Change                         Max.-Flux-Residual
  Residual-Control   Outer-Iter.   Inner-Iter.     Column Row Layer    Maximum-Head-Change  Column Row Layer    Maximum-Flux-Residual          L2-NORM 
          0                 1           2             4    7     1       0.1578243560E-01       4    7    1         0.8278524798E+00      0.2102400393E+01
          0                 2           2             4    7     1      -0.1534373270E-02       4    7    1        -0.8274057478E-01      0.2101370770E+00
          0                 3           1             4    7     1       0.1044063771E-03       4    7    1         0.5787464631E-02      0.1469982682E-01
          0                 4           1             4    7     1      -0.4149219325E-05       4    7    1        -0.2364099510E-03      0.6006266975E-03

    ------------------------------------------------
       NWT REQUIRED            4 OUTER ITERATIONS 
       AND A TOTAL OF          6 INNER ITERATIONS.
    ------------------------------------------------

 NO OUTPUT CONTROL FOR STRESS PERIOD   14   TIME STEP    6
 
 SOLVING FOR HEAD 
                                                   Max.-Head-Change                         Max.-Flux-Residual
  Residual-Control   Outer-Iter.   Inner-Iter.     Column Row Layer    Maximum-Head-Change  Column Row Layer    Maximum-Flux-Residual          L2-NORM 
          0                 1           2             4    7     1       0.1563392342E-01       4    7    1         0.8200367621E+00      0.2084704776E+01
          0                 2           2             4    7     1      -0.1519934809E-02       4    7    1        -0.8195941993E-01      0.2083713992E+00
          0                 3           1             4    7     1       0.1034239119E-03       4    7    1         0.5732824989E-02      0.1457662812E-01
          0                 4           1             4    7     1      -0.4110175181E-05       4    7    1        -0.2341779898E-03      0.5955999703E-03

    ------------------------------------------------
       NWT REQUIRED            4 OUTER ITERATIONS 
       AND A TOTAL OF          6 INNER ITERATIONS.
    ------------------------------------------------

 NO OUTPUT CONTROL FOR STRESS PERIOD   14   TIME STEP    7
 
 SOLVING FOR HEAD 
                                                   Max.-Head-Change                         Max.-Flux-Residual
  Residual-Control   Outer-Iter.   Inner-Iter.     Column Row Layer    Maximum-Head-Change  Column Row Layer    Maximum-Flux-Residual          L2-NORM 
          0                 1           2             4    7     1       0.1548732054E-01       4    7    1         0.8123218604E+00      0.2067283889E+01
          0                 2           2             4    7     1      -0.1505715255E-02       4    7    1        -0.8118834138E-01      0.2066743506E+00
          0                 3           1             4    7     1       0.1024563412E-03       4    7    1         0.5678890062E-02      0.1445806137E-01
          0                 4           1             4    7     1      -0.4071722793E-05       4    7    1        -0.2319748087E-03      0.5909634152E-03

    ------------------------------------------------
       NWT REQUIRED            4 OUTER ITERATIONS 
       AND A TOTAL OF          6 INNER ITERATIONS.
    ------------------------------------------------

 NO OUTPUT CONTROL FOR STRESS PERIOD   14   TIME STEP    8
 
 SOLVING FOR HEAD 
                                                   Max.-Head-Change                         Max.-Flux-Residual
  Residual-Control   Outer-Iter.   Inner-Iter.     Column Row Layer    Maximum-Head-Change  Column Row Layer    Maximum-Flux-Residual          L2-NORM 
          0                 1           2             4    7     1       0.1534233726E-01       4    7    1         0.8046968191E+00      0.2050086555E+01
          0                 2           2             4    7     1      -0.1491586613E-02       4    7    1        -0.8042624455E-01      0.2049160727E+00
          0                 3           1             4    7     1       0.1014949598E-03       4    7    1         0.5625583617E-02      0.1433524421E-01
          0                 4           1             4    7     1      -0.4033516432E-05       4    7    1        -0.2297973042E-03      0.5857667095E-03

    ------------------------------------------------
       NWT REQUIRED            4 OUTER ITERATIONS 
       AND A TOTAL OF          6 INNER ITERATIONS.
    ------------------------------------------------

 NO OUTPUT CONTROL FOR STRESS PERIOD   14   TIME STEP    9
 
 SOLVING FOR HEAD 
                                                   Max.-Head-Change                         Max.-Flux-Residual
  Residual-Control   Outer-Iter.   Inner-Iter.     Column Row Layer    Maximum-Head-Change  Column Row Layer    Maximum-Flux-Residual          L2-NORM 
          0                 1           2             4    7     1       0.1519932825E-01       4    7    1         0.7971740174E+00      0.2033123500E+01
          0                 2           2             4    7     1      -0.1477683180E-02       4    7    1        -0.7967436615E-01      0.2032192317E+00
          0                 3           1             4    7     1       0.1005489010E-03       4    7    1         0.5572991812E-02      0.1421401058E-01
          0                 4           1             4    7     1      -0.3995918981E-05       4    7    1        -0.2276489938E-03      0.5808748107E-03

    ------------------------------------------------
       NWT REQUIRED            4 OUTER ITERATIONS 
       AND A TOTAL OF          6 INNER ITERATIONS.
    ------------------------------------------------

 NO OUTPUT CONTROL FOR STRESS PERIOD   14   TIME STEP   10
 
 SOLVING FOR HEAD 
                                                   Max.-Head-Change                         Max.-Flux-Residual
  Residual-Control   Outer-Iter.   Inner-Iter.     Column Row Layer    Maximum-Head-Change  Column Row Layer    Maximum-Flux-Residual          L2-NORM 
          0                 1           2             4    7     1       0.1505795276E-01       4    7    1         0.7897370856E+00      0.2016392229E+01
          0                 2           2             4    7     1      -0.1463938559E-02       4    7    1        -0.7893107016E-01      0.2015525029E+00
          0                 3           1             4    7     1       0.9961364847E-04       4    7    1         0.5521000301E-02      0.1410072180E-01

    ------------------------------------------------
       NWT REQUIRED            3 OUTER ITERATIONS 
       AND A TOTAL OF          5 INNER ITERATIONS.
    ------------------------------------------------

 NO OUTPUT CONTROL FOR STRESS PERIOD   14   TIME STEP   11
 
 SOLVING FOR HEAD 
                                                   Max.-Head-Change                         Max.-Flux-Residual
  Residual-Control   Outer-Iter.   Inner-Iter.     Column Row Layer    Maximum-Head-Change  Column Row Layer    Maximum-Flux-Residual          L2-NORM 
          0                 1           2             4    7     1       0.1491841126E-01       4    7    1         0.7823969705E+00      0.1999893956E+01
          0                 2           2             4    7     1      -0.1450372242E-02       4    7    1        -0.7819745075E-01      0.1999046467E+00
          0                 3           1             4    7     1       0.9869052875E-04       4    7    1         0.5469685678E-02      0.1398518838E-01

    ------------------------------------------------
       NWT REQUIRED            3 OUTER ITERATIONS 
       AND A TOTAL OF          5 INNER ITERATIONS.
    ------------------------------------------------

 NO OUTPUT CONTROL FOR STRESS PERIOD   14   TIME STEP   12
 
 SOLVING FOR HEAD 
                                                   Max.-Head-Change                         Max.-Flux-Residual
  Residual-Control   Outer-Iter.   Inner-Iter.     Column Row Layer    Maximum-Head-Change  Column Row Layer    Maximum-Flux-Residual          L2-NORM 
          0                 1           2             4    7     1       0.1478045499E-01       4    7    1         0.7751398534E+00      0.1983622898E+01
          0                 2           2             4    7     1      -0.1436960041E-02       4    7    1        -0.7747212674E-01      0.1982796829E+00
          0                 3           1             4    7     1       0.9777789555E-04       4    7    1         0.5418951263E-02      0.1387165590E-01

    ------------------------------------------------
       NWT REQUIRED            3 OUTER ITERATIONS 
       AND A TOTAL OF          5 INNER ITERATIONS.
    ------------------------------------------------

 NO OUTPUT CONTROL FOR STRESS PERIOD   14   TIME STEP   13
 
 SOLVING FOR HEAD 
                                                   Max.-Head-Change                         Max.-Flux-Residual
  Residual-Control   Outer-Iter.   Inner-Iter.     Column Row Layer    Maximum-Head-Change  Column Row Layer    Maximum-Flux-Residual          L2-NORM 
          0                 1           2             4    7     1       0.1464419251E-01       4    7    1         0.7679722882E+00      0.1967132520E+01
          0                 2           2             4    7     1      -0.1423712513E-02       4    7    1        -0.7675575318E-01      0.1966355314E+00
          0                 3           1             4    7     1       0.9687646765E-04       4    7    1         0.5368842918E-02      0.1375724964E-01

    ------------------------------------------------
       NWT REQUIRED            3 OUTER ITERATIONS 
       AND A TOTAL OF          5 INNER ITERATIONS.
    ------------------------------------------------

 NO OUTPUT CONTROL FOR STRESS PERIOD   14   TIME STEP   14
 
 SOLVING FOR HEAD 
                                                   Max.-Head-Change                         Max.-Flux-Residual
  Residual-Control   Outer-Iter.   Inner-Iter.     Column Row Layer    Maximum-Head-Change  Column Row Layer    Maximum-Flux-Residual          L2-NORM 
          0                 1           2             4    7     1       0.1450960443E-01       4    7    1         0.7608925427E+00      0.1951281755E+01
          0                 2           2             4    7     1      -0.1410627771E-02       4    7    1        -0.7604815693E-01      0.1950546760E+00
          0                 3           1             4    7     1       0.9598611665E-04       4    7    1         0.5319348521E-02      0.1364670149E-01

    ------------------------------------------------
       NWT REQUIRED            3 OUTER ITERATIONS 
       AND A TOTAL OF          5 INNER ITERATIONS.
    ------------------------------------------------

 NO OUTPUT CONTROL FOR STRESS PERIOD   14   TIME STEP   15
 
 SOLVING FOR HEAD 
                                                   Max.-Head-Change                         Max.-Flux-Residual
  Residual-Control   Outer-Iter.   Inner-Iter.     Column Row Layer    Maximum-Head-Change  Column Row Layer    Maximum-Flux-Residual          L2-NORM 
          0                 1           2             4    7     1       0.1437679872E-01       4    7    1         0.7539069725E+00      0.1935653858E+01
          0                 2           2             4    7     1      -0.1397716313E-02       4    7    1        -0.7534997326E-01      0.1934930312E+00
          0                 3           1             4    7     1       0.9510755671E-04       4    7    1         0.5270512516E-02      0.1353751290E-01

    ------------------------------------------------
       NWT REQUIRED            3 OUTER ITERATIONS 
       AND A TOTAL OF          5 INNER ITERATIONS.
    ------------------------------------------------

 NO OUTPUT CONTROL FOR STRESS PERIOD   14   TIME STEP   16
 
 SOLVING FOR HEAD 
                                                   Max.-Head-Change                         Max.-Flux-Residual
  Residual-Control   Outer-Iter.   Inner-Iter.     Column Row Layer    Maximum-Head-Change  Column Row Layer    Maximum-Flux-Residual          L2-NORM 
          0                 1           2             4    7     1       0.1424547237E-01       4    7    1         0.7469990928E+00      0.1920226058E+01
          0                 2           2             4    7     1      -0.1384948680E-02       4    7    1        -0.7465955454E-01      0.1919511866E+00
          0                 3           1             4    7     1       0.9423878297E-04       4    7    1         0.5222219620E-02      0.1342969674E-01

    ------------------------------------------------
       NWT REQUIRED            3 OUTER ITERATIONS 
       AND A TOTAL OF          5 INNER ITERATIONS.
    ------------------------------------------------

 NO OUTPUT CONTROL FOR STRESS PERIOD   14   TIME STEP   17
 
 SOLVING FOR HEAD 
                                                   Max.-Head-Change                         Max.-Flux-Residual
  Residual-Control   Outer-Iter.   Inner-Iter.     Column Row Layer    Maximum-Head-Change  Column Row Layer    Maximum-Flux-Residual          L2-NORM 
          0                 1           2             4    7     1       0.1411574485E-01       4    7    1         0.7401752765E+00      0.1904990326E+01
          0                 2           2             4    7     1      -0.1372336487E-02       4    7    1        -0.7397753767E-01      0.1904284495E+00
          0                 3           1             4    7     1       0.9338058663E-04       4    7    1         0.5174514440E-02      0.1332323299E-01

    ------------------------------------------------
       NWT REQUIRED            3 OUTER ITERATIONS 
       AND A TOTAL OF          5 INNER ITERATIONS.
    ------------------------------------------------

 NO OUTPUT CONTROL FOR STRESS PERIOD   14   TIME STEP   18
 
 SOLVING FOR HEAD 
                                                   Max.-Head-Change                         Max.-Flux-Residual
  Residual-Control   Outer-Iter.   Inner-Iter.     Column Row Layer    Maximum-Head-Change  Column Row Layer    Maximum-Flux-Residual          L2-NORM 
          0                 1           2             4    7     1       0.1398758936E-01       4    7    1         0.7334343566E+00      0.1889949904E+01
          0                 2           2             4    7     1      -0.1359877127E-02       4    7    1        -0.7330380608E-01      0.1889252141E+00
          0                 3           1             4    7     1       0.9253278937E-04       4    7    1         0.5127388773E-02      0.1321812486E-01

    ------------------------------------------------
       NWT REQUIRED            3 OUTER ITERATIONS 
       AND A TOTAL OF          5 INNER ITERATIONS.
    ------------------------------------------------

 NO OUTPUT CONTROL FOR STRESS PERIOD   14   TIME STEP   19
 
 SOLVING FOR HEAD 
                                                   Max.-Head-Change                         Max.-Flux-Residual
  Residual-Control   Outer-Iter.   Inner-Iter.     Column Row Layer    Maximum-Head-Change  Column Row Layer    Maximum-Flux-Residual          L2-NORM 
          0                 1           2             4    7     1       0.1386111687E-01       4    7    1         0.7267823051E+00      0.1875097955E+01
          0                 2           2             4    7     1      -0.1347581392E-02       4    7    1        -0.7263895666E-01      0.1874406521E+00
          0                 3           1             4    7     1       0.9169612628E-04       4    7    1         0.5080884394E-02      0.1311428834E-01

    ------------------------------------------------
       NWT REQUIRED            3 OUTER ITERATIONS 
       AND A TOTAL OF          5 INNER ITERATIONS.
    ------------------------------------------------

 NO OUTPUT CONTROL FOR STRESS PERIOD   14   TIME STEP   20
 
 SOLVING FOR HEAD 
                                                   Max.-Head-Change                         Max.-Flux-Residual
  Residual-Control   Outer-Iter.   Inner-Iter.     Column Row Layer    Maximum-Head-Change  Column Row Layer    Maximum-Flux-Residual          L2-NORM 
          0                 1           2             4    7     1       0.1373602551E-01       4    7    1         0.7202027905E+00      0.1860421663E+01
          0                 2           2             4    7     1      -0.1336453438E-02       4    7    1        -0.7205388345E-01      0.1859924335E+00
          0                 3           1             4    7     1       0.9093896197E-04       4    7    1         0.5039960899E-02      0.1301292165E-01

    ------------------------------------------------
       NWT REQUIRED            3 OUTER ITERATIONS 
       AND A TOTAL OF          5 INNER ITERATIONS.
    ------------------------------------------------

 NO OUTPUT CONTROL FOR STRESS PERIOD   14   TIME STEP   21
 
 SOLVING FOR HEAD 
                                                   Max.-Head-Change                         Max.-Flux-Residual
  Residual-Control   Outer-Iter.   Inner-Iter.     Column Row Layer    Maximum-Head-Change  Column Row Layer    Maximum-Flux-Residual          L2-NORM 
          0                 1           2             4    7     1       0.1360908493E-01       4    7    1         0.7136544722E+00      0.1845915762E+01
          0                 2           2             4    7     1      -0.1323079265E-02       4    7    1        -0.7132689571E-01      0.1845237331E+00
          0                 3           1             4    7     1       0.9002891384E-04       4    7    1         0.4989109934E-02      0.1291027744E-01

    ------------------------------------------------
       NWT REQUIRED            3 OUTER ITERATIONS 
       AND A TOTAL OF          5 INNER ITERATIONS.
    ------------------------------------------------

 NO OUTPUT CONTROL FOR STRESS PERIOD   14   TIME STEP   22
 
 SOLVING FOR HEAD 
                                                   Max.-Head-Change                         Max.-Flux-Residual
  Residual-Control   Outer-Iter.   Inner-Iter.     Column Row Layer    Maximum-Head-Change  Column Row Layer    Maximum-Flux-Residual          L2-NORM 
          0                 1           2             4    7     1       0.1348487483E-01       4    7    1         0.7071131185E+00      0.1831313857E+01
          0                 2           2             4    7     1      -0.1311003465E-02       4    7    1        -0.7067310911E-01      0.1830601990E+00
          0                 3           1             4    7     1       0.8920721560E-04       4    7    1         0.4943379339E-02      0.1280817817E-01

    ------------------------------------------------
       NWT REQUIRED            3 OUTER ITERATIONS 
       AND A TOTAL OF          5 INNER ITERATIONS.
    ------------------------------------------------

 NO OUTPUT CONTROL FOR STRESS PERIOD   14   TIME STEP   23
 
 SOLVING FOR HEAD 
                                                   Max.-Head-Change                         Max.-Flux-Residual
  Residual-Control   Outer-Iter.   Inner-Iter.     Column Row Layer    Maximum-Head-Change  Column Row Layer    Maximum-Flux-Residual          L2-NORM 
          0                 1           2             4    7     1       0.1336229163E-01       4    7    1         0.7006582682E+00      0.1817076193E+01
          0                 2           2             4    7     1      -0.1299085833E-02       4    7    1        -0.7002796833E-01      0.1816430123E+00
          0                 3           1             4    7     1       0.8839627984E-04       4    7    1         0.4898253493E-02      0.1270902025E-01

    ------------------------------------------------
       NWT REQUIRED            3 OUTER ITERATIONS 
       AND A TOTAL OF          5 INNER ITERATIONS.
    ------------------------------------------------

 NO OUTPUT CONTROL FOR STRESS PERIOD   14   TIME STEP   24
 
 SOLVING FOR HEAD 
                                                   Max.-Head-Change                         Max.-Flux-Residual
  Residual-Control   Outer-Iter.   Inner-Iter.     Column Row Layer    Maximum-Head-Change  Column Row Layer    Maximum-Flux-Residual          L2-NORM 
          0                 1           2             4    7     1       0.1324130521E-01       4    7    1         0.6942877689E+00      0.1803033309E+01
          0                 2           2             4    7     1      -0.1287323443E-02       4    7    1        -0.6939125821E-01      0.1802399124E+00
          0                 3           1             4    7     1       0.8759590752E-04       4    7    1         0.4853717357E-02      0.1261086060E-01

    ------------------------------------------------
       NWT REQUIRED            3 OUTER ITERATIONS 
       AND A TOTAL OF          5 INNER ITERATIONS.
    ------------------------------------------------

 NO OUTPUT CONTROL FOR STRESS PERIOD   14   TIME STEP   25
 
 SOLVING FOR HEAD 
                                                   Max.-Head-Change                         Max.-Flux-Residual
  Residual-Control   Outer-Iter.   Inner-Iter.     Column Row Layer    Maximum-Head-Change  Column Row Layer    Maximum-Flux-Residual          L2-NORM 
          0                 1           2             4    7     1       0.1312188271E-01       4    7    1         0.6880000600E+00      0.1789161987E+01
          0                 2           2             4    7     1      -0.1275713101E-02       4    7    1        -0.6876282285E-01      0.1788536063E+00
          0                 3           1             4    7     1       0.8680588113E-04       4    7    1         0.4809759995E-02      0.1251388262E-01

    ------------------------------------------------
       NWT REQUIRED            3 OUTER ITERATIONS 
       AND A TOTAL OF          5 INNER ITERATIONS.
    ------------------------------------------------

 NO OUTPUT CONTROL FOR STRESS PERIOD   14   TIME STEP   26
 
 SOLVING FOR HEAD 
                                                   Max.-Head-Change                         Max.-Flux-Residual
  Residual-Control   Outer-Iter.   Inner-Iter.     Column Row Layer    Maximum-Head-Change  Column Row Layer    Maximum-Flux-Residual          L2-NORM 
          0                 1           2             4    7     1       0.1300412796E-01       4    7    1         0.6818008011E+00      0.1775462646E+01
          0                 2           2             4    7     1      -0.1264264899E-02       4    7    1        -0.6814322783E-01      0.1774841082E+00
          0                 3           1             4    7     1       0.8602688786E-04       4    7    1         0.4766421017E-02      0.1241812487E-01

    ------------------------------------------------
       NWT REQUIRED            3 OUTER ITERATIONS 
       AND A TOTAL OF          5 INNER ITERATIONS.
    ------------------------------------------------

 NO OUTPUT CONTROL FOR STRESS PERIOD   14   TIME STEP   27
 
 SOLVING FOR HEAD 
                                                   Max.-Head-Change                         Max.-Flux-Residual
  Residual-Control   Outer-Iter.   Inner-Iter.     Column Row Layer    Maximum-Head-Change  Column Row Layer    Maximum-Flux-Residual          L2-NORM 
          0                 1           2             4    7     1       0.1288773465E-01       4    7    1         0.6756732848E+00      0.1761930772E+01
          0                 2           2             4    7     1      -0.1252949058E-02       4    7    1        -0.6753080336E-01      0.1761311084E+00
          0                 3           1             4    7     1       0.8525690072E-04       4    7    1         0.4723583594E-02      0.1232344617E-01

    ------------------------------------------------
       NWT REQUIRED            3 OUTER ITERATIONS 
       AND A TOTAL OF          5 INNER ITERATIONS.
    ------------------------------------------------

 NO OUTPUT CONTROL FOR STRESS PERIOD   14   TIME STEP   28
 
 SOLVING FOR HEAD 
                                                   Max.-Head-Change                         Max.-Flux-Residual
  Residual-Control   Outer-Iter.   Inner-Iter.     Column Row Layer    Maximum-Head-Change  Column Row Layer    Maximum-Flux-Residual          L2-NORM 
          0                 1           2             4    7     1       0.1277294918E-01       4    7    1         0.6696310838E+00      0.1748555994E+01
          0                 2           2             4    7     1      -0.1241789534E-02       4    7    1        -0.6692690589E-01      0.1747937108E+00
          0                 3           1             4    7     1       0.8449755062E-04       4    7    1         0.4681342619E-02      0.1222987758E-01

    ------------------------------------------------
       NWT REQUIRED            3 OUTER ITERATIONS 
       AND A TOTAL OF          5 INNER ITERATIONS.
    ------------------------------------------------

 NO OUTPUT CONTROL FOR STRESS PERIOD   14   TIME STEP   29
 
 SOLVING FOR HEAD 
                                                   Max.-Head-Change                         Max.-Flux-Residual
  Residual-Control   Outer-Iter.   Inner-Iter.     Column Row Layer    Maximum-Head-Change  Column Row Layer    Maximum-Flux-Residual          L2-NORM 
          0                 1           2             4    7     1       0.1265973295E-01       4    7    1         0.6636722469E+00      0.1735342131E+01
          0                 2           2             4    7     1      -0.1230782575E-02       4    7    1        -0.6633134054E-01      0.1734723024E+00
          0                 3           1             4    7     1       0.8374858172E-04       4    7    1         0.4639684457E-02      0.1213744984E-01

    ------------------------------------------------
       NWT REQUIRED            3 OUTER ITERATIONS 
       AND A TOTAL OF          5 INNER ITERATIONS.
    ------------------------------------------------

 NO OUTPUT CONTROL FOR STRESS PERIOD   14   TIME STEP   30



 STREAM LISTING     PERIOD     14   STEP       30

 LAYER ROW COL. STREAM  RCH.  FLOW INTO     FLOW TO   FLOW OUT OF   OVRLND.     DIRECT     STREAM       STREAM     STREAM     STREAM   STREAMBED  STREAMBED
                SEG.NO.  NO.  STRM. RCH.    AQUIFER    STRM. RCH.    RUNOFF     PRECIP       ET          HEAD       DEPTH      WIDTH   CONDCTNC.   GRADIENT

   1    1    1     1     1    1.9000E+01  2.1427E-01   1.8786E+01  0.000E+00  0.000E+00  0.000E+00  1.09413E+03  1.082E+00  1.166E+01  5.249E-02  1.361E+00
   1    2    2     1     2    1.8786E+01  3.3055E-01   1.8455E+01  0.000E+00  0.000E+00  0.000E+00  1.08914E+03  1.077E+00  1.158E+01  8.107E-02  1.359E+00
   1    3    3     1     3    1.8455E+01  2.8065E-01   1.8175E+01  0.000E+00  0.000E+00  0.000E+00  1.08349E+03  1.072E+00  1.149E+01  6.892E-02  1.357E+00
   1    3    4     1     4    1.8175E+01  2.5740E-01   1.7917E+01  0.000E+00  0.000E+00  0.000E+00  1.07848E+03  1.068E+00  1.140E+01  6.328E-02  1.356E+00
   1    4    5     2     1    1.5917E+01  3.0543E-01   1.5612E+01  0.000E+00  0.000E+00  0.000E+00  1.07285E+03  9.157E-01  1.200E+01  7.800E-02  1.305E+00
   1    5    6     2     2    1.5612E+01  2.3438E-01   1.5378E+01  0.000E+00  0.000E+00  0.000E+00  1.06742E+03  9.063E-01  1.200E+01  6.000E-02  1.302E+00
   1    6    6     2     3    1.5378E+01  2.3388E-01   1.5144E+01  0.000E+00  0.000E+00  0.000E+00  1.06269E+03  8.980E-01  1.200E+01  6.000E-02  1.299E+00
   1    7    6     2     4    1.5144E+01  2.3339E-01   1.4910E+01  0.000E+00  0.000E+00  0.000E+00  1.05797E+03  8.898E-01  1.200E+01  6.000E-02  1.297E+00
   1    8    6     2     5    1.4910E+01  2.3289E-01   1.4677E+01  0.000E+00  0.000E+00  0.000E+00  1.05324E+03  8.814E-01  1.200E+01  6.000E-02  1.294E+00
   1    3    5     3     1    2.0000E+00  2.8252E-01   1.7175E+00  0.000E+00  0.000E+00  0.000E+00  1.07555E+03  1.909E+00  9.636E+00  7.227E-02  1.955E+00
   1    3    6     3     2    1.7175E+00  2.4905E-01   1.4684E+00  0.000E+00  0.000E+00  0.000E+00  1.07264E+03  1.727E+00  8.909E+00  6.682E-02  1.864E+00
   1    3    7     3     3    1.4684E+00  1.9718E-01   1.2712E+00  0.000E+00  0.000E+00  0.000E+00  1.06987E+03  1.555E+00  8.218E+00  5.547E-02  1.777E+00
   1    4    8     3     4    1.2712E+00  2.2567E-01   1.0456E+00  0.000E+00  0.000E+00  0.000E+00  1.06682E+03  1.364E+00  7.455E+00  6.709E-02  1.682E+00
   1    5    8     3     5    1.0456E+00  1.5790E-01   8.8768E-01  0.000E+00  0.000E+00  0.000E+00  1.06362E+03  1.164E+00  6.655E+00  4.991E-02  1.582E+00
   1    6    8     3     6    8.8768E-01  5.5980E-02   8.3170E-01  0.000E+00  0.000E+00  0.000E+00  1.06158E+03  1.036E+00  6.145E+00  1.844E-02  1.518E+00
   1    5   10     4     1    1.0000E+01  9.0919E-02   9.9091E+00  0.000E+00  0.000E+00  0.000E+00  1.07836E+03  6.368E-01  1.000E+01  2.500E-02  1.212E+00
   1    5    9     4     2    9.9091E+00  1.8158E-01   9.7275E+00  0.000E+00  0.000E+00  0.000E+00  1.07154E+03  6.315E-01  1.000E+01  5.000E-02  1.211E+00
   1    6    8     4     3    9.7275E+00  1.2689E-01   9.6006E+00  0.000E+00  0.000E+00  0.000E+00  1.06381E+03  6.256E-01  1.000E+01  3.500E-02  1.209E+00
   1    6    8     5     1    1.0432E+01  2.2686E-01   1.0205E+01  0.000E+00  0.000E+00  0.000E+00  1.05868E+03  6.790E-01  1.542E+01  6.166E-02  1.226E+00
   1    7    7     5     2    1.0205E+01  2.7894E-01   9.9265E+00  0.000E+00  0.000E+00  0.000E+00  1.05417E+03  6.732E-01  1.519E+01  7.594E-02  1.224E+00
   1    8    7     5     3    9.9265E+00  1.9221E-01   9.7343E+00  0.000E+00  0.000E+00  0.000E+00  1.04992E+03  6.676E-01  1.497E+01  5.241E-02  1.223E+00
   1    8    6     5     4    9.7343E+00  1.3577E-01   9.5985E+00  0.000E+00  0.000E+00  0.000E+00  1.04691E+03  6.637E-01  1.482E+01  3.706E-02  1.221E+00
   1    9    6     6     1    2.4276E+01  2.5176E-01   2.4024E+01  0.000E+00  0.000E+00  0.000E+00  1.04392E+03  1.196E+00  1.200E+01  6.000E-02  1.399E+00
   1   10    7     6     2    2.4024E+01  2.5131E-01   2.3773E+01  0.000E+00  0.000E+00  0.000E+00  1.03937E+03  1.188E+00  1.200E+01  6.000E-02  1.396E+00
   1   11    7     6     3    2.3773E+01  2.5086E-01   2.3522E+01  0.000E+00  0.000E+00  0.000E+00  1.03482E+03  1.181E+00  1.200E+01  6.000E-02  1.394E+00
   1   12    7     6     4    2.3522E+01  2.5041E-01   2.3272E+01  0.000E+00  0.000E+00  0.000E+00  1.03026E+03  1.173E+00  1.200E+01  6.000E-02  1.391E+00
   1   13    7     6     5    2.3272E+01 -1.3005E-02   2.3285E+01  0.000E+00  0.000E+00  0.000E+00  1.02708E+03  1.170E+00  1.200E+01  2.400E-01 -1.806E-02
   1   14    9     7     1    1.5000E+02  1.3295E+00   1.4867E+02  0.000E+00  0.000E+00  0.000E+00  1.03987E+03  2.288E+00  5.529E+01  5.593E-01  7.923E-01
   1   13    8     7     2    1.4867E+02  1.8072E+00   1.4686E+02  0.000E+00  0.000E+00  0.000E+00  1.03478E+03  2.279E+00  5.526E+01  6.148E-01  9.798E-01
   1   13    7     7     3    1.4686E+02  1.4280E+00   1.4544E+02  0.000E+00  0.000E+00  0.000E+00  1.02969E+03  2.271E+00  5.522E+01  5.585E-01  8.523E-01
   1   13    6     8     1    1.6872E+02  8.7960E-01   1.6784E+02  0.000E+00  0.000E+00  0.000E+00  1.02482E+03  2.941E+00  4.264E+01  4.346E-01  6.747E-01
   1   13    5     8     2    1.6784E+02  1.4685E-01   1.6769E+02  0.000E+00  0.000E+00  0.000E+00  1.01856E+03  2.938E+00  4.260E+01  4.341E-01  1.128E-01
   1   13    4     8     3    1.6769E+02 -2.5269E+00   1.7022E+02  0.000E+00  0.000E+00  0.000E+00  1.01232E+03  2.945E+00  4.271E+01  4.352E+00 -1.935E-01
   1   13    3     8     4    1.7022E+02 -3.7263E+00   1.7395E+02  0.000E+00  0.000E+00  0.000E+00  1.00609E+03  2.966E+00  4.300E+01  4.382E+00 -2.834E-01
   1   13    2     8     5    1.7395E+02 -2.6050E+00   1.7655E+02  0.000E+00  0.000E+00  0.000E+00  9.99861E+02  2.986E+00  4.330E+01  4.412E+00 -1.968E-01
   1   13    1     8     6    1.7655E+02 -1.9999E+00   1.7855E+02  0.000E+00  0.000E+00  0.000E+00  9.94876E+02  3.001E+00  4.351E+01  2.660E+00 -2.506E-01





UNSATURATED ZONE PACKAGE VOLUMETRIC BUDGET FOR  TIME STEP    30 STRESS PERIOD   14
  ------------------------------------------------------------------------------



     CUMULATIVE VOLUMES      L**3       RATES FOR THIS TIME STEP      L**3/T
     ------------------                 ------------------------

           IN:                                      IN:
           ---                                      ---
        INFILTRATION =   621249862.9055          INFILTRATION =           4.4075

          OUT:                                     OUT:
          ----                                     ----
              UZF ET =   501061661.1030                UZF ET =           0.7253
        UZF RECHARGE =    73106176.3375          UZF RECHARGE =           0.0808

            IN - OUT =    47082025.4650              IN - OUT =           3.6014

          STORAGE:                                 STORAGE:
          --------                                 --------
      STORAGE CHANGE =    47082592.9525        STORAGE CHANGE =           3.6014

 PERCENT DISCREPANCY IS DIFFERENCE BETWEEN IN-OUT MINUS CHANGE IN STORAGE
 DIVIDED BY THE AVERAGE OF IN AND OUT TIMES 100

 PERCENT DISCREPANCY =          -0.00     PERCENT DISCREPANCY =           0.00






1
  VOLUMETRIC BUDGET FOR AGRICULTURAL FIELDS AT TIME STEP   30, STRESS PERIOD  14
  ------------------------------------------------------------------------------

     CUMULATIVE VOLUMES      L**3       RATES FOR THIS TIME STEP      L**3/T
     ------------------                 ------------------------

           IN:                                      IN:
           ---                                      ---
               AG WELLS  =   470484032.0000                 AG WELLS  =           0.0000
      DIVERSION SEGMENTS =           0.0000        DIVERSION SEGMENTS =           0.0000
           GW IRRIGATION =           0.0000             GW IRRIGATION =           0.0000
           SW IRRIGATION =           0.0000             SW IRRIGATION =           0.0000
        SYSTEM LOSSES GW =           0.0000          SYSTEM LOSSES GW =           0.0000
        SYSTEM LOSSES SW =           0.0000          SYSTEM LOSSES SW =           0.0000

                TOTAL IN =   470484032.0000                  TOTAL IN =           0.0000

          OUT:                                     OUT:
          ----                                     ----
               AG WELLS  =           0.0000                 AG WELLS  =           0.0000
      DIVERSION SEGMENTS =           0.0000        DIVERSION SEGMENTS =           0.0000
           GW IRRIGATION =   470484032.0000             GW IRRIGATION =           0.0000
           SW IRRIGATION =           0.0000             SW IRRIGATION =           0.0000
        SYSTEM LOSSES GW =           0.0000          SYSTEM LOSSES GW =           0.0000
        SYSTEM LOSSES SW =           0.0000          SYSTEM LOSSES SW =           0.0000

               TOTAL OUT =   470484032.0000                 TOTAL OUT =           0.0000

                IN - OUT =           0.0000                  IN - OUT =           0.0000

     PERCENT DISCREPANCY =           0.00         PERCENT DISCREPANCY =           0.00



1
  VOLUMETRIC BUDGET FOR ENTIRE MODEL AT END OF TIME STEP   30, STRESS PERIOD  14
  ------------------------------------------------------------------------------

     CUMULATIVE VOLUMES      L**3       RATES FOR THIS TIME STEP      L**3/T
     ------------------                 ------------------------

           IN:                                      IN:
           ---                                      ---
             STORAGE     =   605957248.0000               STORAGE     =           5.5533
       CONSTANT HEAD     =           0.0000         CONSTANT HEAD     =           0.0000
     HEAD DEP BOUNDS     =     9783322.0000       HEAD DEP BOUNDS     =           0.2853
      STREAM LEAKAGE     =   424194272.0000        STREAM LEAKAGE     =          11.3197
        UZF RECHARGE     =    73106160.0000          UZF RECHARGE     =       8.0801E-02
               GW ET     =           0.0000                 GW ET     =           0.0000
     SURFACE LEAKAGE     =           0.0000       SURFACE LEAKAGE     =           0.0000
           AG WELLS      =           0.0000             AG WELLS      =           0.0000

                TOTAL IN =  1113041024.0000                  TOTAL IN =          17.2391

          OUT:                                     OUT:
          ----                                     ----
             STORAGE     =   261080928.0000               STORAGE     =           6.0783
       CONSTANT HEAD     =           0.0000         CONSTANT HEAD     =           0.0000
     HEAD DEP BOUNDS     =    10088166.0000       HEAD DEP BOUNDS     =           0.2898
      STREAM LEAKAGE     =   357789248.0000        STREAM LEAKAGE     =          10.8711
        UZF RECHARGE     =           0.0000          UZF RECHARGE     =           0.0000
               GW ET     =    13595227.0000                 GW ET     =           0.0000
     SURFACE LEAKAGE     =           0.0000       SURFACE LEAKAGE     =           0.0000
           AG WELLS      =   470484032.0000             AG WELLS      =           0.0000

               TOTAL OUT =  1113037568.0000                 TOTAL OUT =          17.2392

                IN - OUT =        3456.0000                  IN - OUT =      -1.4687E-04

     PERCENT DISCREPANCY =           0.00         PERCENT DISCREPANCY =          -0.00






         TIME SUMMARY AT END OF TIME STEP   30 IN STRESS PERIOD   14
                    SECONDS     MINUTES      HOURS       DAYS        YEARS
                    -----------------------------------------------------------
   TIME STEP LENGTH  87667.      1461.1      24.352      1.0147     2.77799E-03
 STRESS PERIOD TIME 2.63000E+06  43833.      730.56      30.440     8.33397E-02
         TOTAL TIME 3.42763E+07 5.71272E+05  9521.2      396.72      1.0862    
1
1
                            STRESS PERIOD NO.   15, LENGTH =   2630000.    
                            -----------------------------------------------

                              NUMBER OF TIME STEPS =    30

                               MULTIPLIER FOR DELT =     1.000

                            INITIAL TIME STEP SIZE =   87666.66    

 REUSING NON-PARAMETER GHB CELLS FROM LAST STRESS PERIOD

      2 GHB CELLS

 REUSING STREAM SEGMENT DATA FROM LAST STRESS PERIOD



            AREAL INFILTRATION RATE
 READING ON UNIT   19 WITH FORMAT: (10F4.0)            

            1           2           3           4           5           6           7           8           9          10
 ........................................................................................................................
   1   1.2000E-09   0.000       0.000       0.000       0.000       0.000       0.000       0.000       0.000       0.000    
   2   2.1000E-09  2.0000E-09  8.0000E-10  8.5000E-09   0.000       0.000       0.000       0.000       0.000       0.000    
   3   5.0000E-10  1.1000E-09  8.8000E-09  5.5000E-09   0.000       0.000       0.000       0.000       0.000       0.000    
   4   8.5000E-09  1.1000E-09  1.1000E-09  1.1000E-09  2.0000E-09   0.000       0.000       0.000       0.000       0.000    
   5   8.5000E-09  1.1000E-09  1.1000E-09  1.1000E-09  1.1000E-09   0.000       0.000       0.000       0.000       0.000    
   6   8.5000E-09  5.2000E-09  2.1000E-09  1.1000E-09  1.5000E-09   0.000       0.000       0.000       0.000       0.000    
   7   8.5000E-09  5.2000E-09  2.1000E-09  1.2000E-09  2.0000E-09   0.000       0.000       0.000       0.000       0.000    
   8   5.0000E-10  5.2000E-09  2.1000E-09  1.2000E-09  5.0000E-09   0.000       0.000       0.000       0.000       0.000    
   9   5.0000E-10  5.2000E-09  2.1000E-09  1.2000E-09  5.0000E-09   0.000       0.000       0.000       0.000       0.000    
  10   5.0000E-10  5.2000E-09  2.1000E-09  1.2000E-09  5.8000E-09   0.000       0.000       0.000       0.000       0.000    
  11   1.0000E-10  1.1000E-09  1.1000E-09  1.2000E-09  5.0000E-09   0.000       0.000       0.000       0.000       0.000    
  12   1.1000E-09  1.1000E-09  1.1000E-09  1.1000E-09  2.0000E-09   0.000       0.000       0.000       0.000       0.000    
  13   1.1000E-09  2.2000E-09  2.2000E-09  2.1000E-09  1.0000E-09   0.000       0.000       0.000       0.000       0.000    
  14   2.0000E-10  5.5000E-09  5.5000E-09  5.2000E-09  1.0000E-09   0.000       0.000       0.000       0.000       0.000    
  15    0.000      8.8000E-09  8.8000E-09   0.000       0.000       0.000       0.000       0.000       0.000       0.000    

                  ET RATE =  5.000000E-10

 USING ET EXTINCTION DEPTH FROM PREVIOUS STRESS PERIOD. CURRENT PERIOD IS:      15

 USING EXTINCTION WATER CONTENT FROM PREVIOUS STRESS PERIOD. CURRENT PERIOD IS:      15

 USING AIR ENTRY PRESSURE FROM PREVIOUS STRESS PERIOD. CURRENT PERIOD IS:      15

 USING ROOT PRESSURE HEAD FROM PREVIOUS STRESS PERIOD. CURRENT PERIOD IS:      15

 USING ROOT ACTIVITY FROM PREVIOUS STRESS PERIOD. CURRENT PERIOD IS:      15

 PROCESSING AG STRESS PERIOD DATA

 READING AG STRESS PERIOD DATA

 READING IRRIGATION WELL

 END PROCESSING AG STRESS PERIOD DATA OPTIONS
 
 SOLVING FOR HEAD 
                                                   Max.-Head-Change                         Max.-Flux-Residual
  Residual-Control   Outer-Iter.   Inner-Iter.     Column Row Layer    Maximum-Head-Change  Column Row Layer    Maximum-Flux-Residual          L2-NORM 
          0                 1           2             4    7     1       0.1254779036E-01       4    7    1         0.6577800438E+00      0.1722289818E+01
          0                 2           2             4    7     1      -0.1219899439E-02       4    7    1        -0.6574243499E-01      0.1721670202E+00
          0                 3           1             4    7     1       0.8300803839E-04       4    7    1         0.4598492126E-02      0.1204612391E-01

    ------------------------------------------------
       NWT REQUIRED            3 OUTER ITERATIONS 
       AND A TOTAL OF          5 INNER ITERATIONS.
    ------------------------------------------------

 NO OUTPUT CONTROL FOR STRESS PERIOD   15   TIME STEP    1
 
 SOLVING FOR HEAD 
                                                   Max.-Head-Change                         Max.-Flux-Residual
  Residual-Control   Outer-Iter.   Inner-Iter.     Column Row Layer    Maximum-Head-Change  Column Row Layer    Maximum-Flux-Residual          L2-NORM 
          0                 1           2             4    7     1       0.1243737306E-01       4    7    1         0.6519686052E+00      0.1707071062E+01
          0                 2           2             4    7     1      -0.1209164594E-02       4    7    1        -0.6516160168E-01      0.1706402856E+00
          0                 3           1             4    7     1       0.8227758551E-04       4    7    1         0.4557864424E-02      0.1193940616E-01

    ------------------------------------------------
       NWT REQUIRED            3 OUTER ITERATIONS 
       AND A TOTAL OF          5 INNER ITERATIONS.
    ------------------------------------------------

 NO OUTPUT CONTROL FOR STRESS PERIOD   15   TIME STEP    2
 
 SOLVING FOR HEAD 
                                                   Max.-Head-Change                         Max.-Flux-Residual
  Residual-Control   Outer-Iter.   Inner-Iter.     Column Row Layer    Maximum-Head-Change  Column Row Layer    Maximum-Flux-Residual          L2-NORM 
          0                 1           2             4    7     1       0.1232845652E-01       4    7    1         0.6462362504E+00      0.1693478727E+01
          0                 2           2             4    7     1      -0.1198575655E-02       4    7    1        -0.6458867256E-01      0.1692202148E+00
          0                 3           1             4    7     1       0.8155706059E-04       4    7    1         0.4517789598E-02      0.1184003489E-01

    ------------------------------------------------
       NWT REQUIRED            3 OUTER ITERATIONS 
       AND A TOTAL OF          5 INNER ITERATIONS.
    ------------------------------------------------

 NO OUTPUT CONTROL FOR STRESS PERIOD   15   TIME STEP    3
 
 SOLVING FOR HEAD 
                                                   Max.-Head-Change                         Max.-Flux-Residual
  Residual-Control   Outer-Iter.   Inner-Iter.     Column Row Layer    Maximum-Head-Change  Column Row Layer    Maximum-Flux-Residual          L2-NORM 
          0                 1           2             4    7     1       0.1222074120E-01       4    7    1         0.6405669783E+00      0.1680755850E+01
          0                 2           2             4    7     1      -0.1188103499E-02       4    7    1        -0.6402204838E-01      0.1679874477E+00
          0                 3           1             4    7     1       0.8084448258E-04       4    7    1         0.4478155797E-02      0.1175379922E-01

    ------------------------------------------------
       NWT REQUIRED            3 OUTER ITERATIONS 
       AND A TOTAL OF          5 INNER ITERATIONS.
    ------------------------------------------------

 NO OUTPUT CONTROL FOR STRESS PERIOD   15   TIME STEP    4
 
 SOLVING FOR HEAD 
                                                   Max.-Head-Change                         Max.-Flux-Residual
  Residual-Control   Outer-Iter.   Inner-Iter.     Column Row Layer    Maximum-Head-Change  Column Row Layer    Maximum-Flux-Residual          L2-NORM 
          0                 1           2             4    7     1       0.1211447490E-01       4    7    1         0.6349747165E+00      0.1668184560E+01
          0                 2           2             4    7     1      -0.1177772218E-02       4    7    1        -0.6346312120E-01      0.1667401363E+00
          0                 3           1             4    7     1       0.8014148994E-04       4    7    1         0.4439060360E-02      0.1166653379E-01

    ------------------------------------------------
       NWT REQUIRED            3 OUTER ITERATIONS 
       AND A TOTAL OF          5 INNER ITERATIONS.
    ------------------------------------------------

 NO OUTPUT CONTROL FOR STRESS PERIOD   15   TIME STEP    5
 
 SOLVING FOR HEAD 
                                                   Max.-Head-Change                         Max.-Flux-Residual
  Residual-Control   Outer-Iter.   Inner-Iter.     Column Row Layer    Maximum-Head-Change  Column Row Layer    Maximum-Flux-Residual          L2-NORM 
          0                 1           2             4    7     1       0.1200963308E-01       4    7    1         0.6294575840E+00      0.1655793285E+01
          0                 2           2             4    7     1      -0.1167579428E-02       4    7    1        -0.6291170299E-01      0.1655085078E+00
          0                 3           1             4    7     1       0.7944792129E-04       4    7    1         0.4400490171E-02      0.1158029214E-01

    ------------------------------------------------
       NWT REQUIRED            3 OUTER ITERATIONS 
       AND A TOTAL OF          5 INNER ITERATIONS.
    ------------------------------------------------

 NO OUTPUT CONTROL FOR STRESS PERIOD   15   TIME STEP    6
 
 SOLVING FOR HEAD 
                                                   Max.-Head-Change                         Max.-Flux-Residual
  Residual-Control   Outer-Iter.   Inner-Iter.     Column Row Layer    Maximum-Head-Change  Column Row Layer    Maximum-Flux-Residual          L2-NORM 
          0                 1           2             4    7     1       0.1190604119E-01       4    7    1         0.6240069432E+00      0.1643555507E+01
          0                 2           2             4    7     1      -0.1157508159E-02       4    7    1        -0.6236693051E-01      0.1642906329E+00
          0                 3           1             4    7     1       0.7876262141E-04       4    7    1         0.4362384841E-02      0.1149514052E-01

    ------------------------------------------------
       NWT REQUIRED            3 OUTER ITERATIONS 
       AND A TOTAL OF          5 INNER ITERATIONS.
    ------------------------------------------------

 NO OUTPUT CONTROL FOR STRESS PERIOD   15   TIME STEP    7
 
 SOLVING FOR HEAD 
                                                   Max.-Head-Change                         Max.-Flux-Residual
  Residual-Control   Outer-Iter.   Inner-Iter.     Column Row Layer    Maximum-Head-Change  Column Row Layer    Maximum-Flux-Residual          L2-NORM 
          0                 1           2             4    7     1       0.1180368237E-01       4    7    1         0.6186211088E+00      0.1631488504E+01
          0                 2           2             4    7     1      -0.1147556769E-02       4    7    1        -0.6182863522E-01      0.1630883410E+00
          0                 3           1             4    7     1       0.7808547882E-04       4    7    1         0.4324732551E-02      0.1141106712E-01

    ------------------------------------------------
       NWT REQUIRED            3 OUTER ITERATIONS 
       AND A TOTAL OF          5 INNER ITERATIONS.
    ------------------------------------------------

 NO OUTPUT CONTROL FOR STRESS PERIOD   15   TIME STEP    8
 
 SOLVING FOR HEAD 
                                                   Max.-Head-Change                         Max.-Flux-Residual
  Residual-Control   Outer-Iter.   Inner-Iter.     Column Row Layer    Maximum-Head-Change  Column Row Layer    Maximum-Flux-Residual          L2-NORM 
          0                 1           2             4    7     1       0.1170266924E-01       4    7    1         0.6133065727E+00      0.1619569883E+01
          0                 2           2             4    7     1      -0.1137736210E-02       4    7    1        -0.6129746602E-01      0.1618997779E+00
          0                 3           1             4    7     1       0.7741723858E-04       4    7    1         0.4287578739E-02      0.1132792988E-01

    ------------------------------------------------
       NWT REQUIRED            3 OUTER ITERATIONS 
       AND A TOTAL OF          5 INNER ITERATIONS.
    ------------------------------------------------

 NO OUTPUT CONTROL FOR STRESS PERIOD   15   TIME STEP    9
 
 SOLVING FOR HEAD 
                                                   Max.-Head-Change                         Max.-Flux-Residual
  Residual-Control   Outer-Iter.   Inner-Iter.     Column Row Layer    Maximum-Head-Change  Column Row Layer    Maximum-Flux-Residual          L2-NORM 
          0                 1           2             4    7     1       0.1160283858E-01       4    7    1         0.6080544425E+00      0.1607798103E+01
          0                 2           2             4    7     1      -0.1128030611E-02       4    7    1        -0.6077253410E-01      0.1607250920E+00
          0                 3           1             4    7     1       0.7675682075E-04       4    7    1         0.4250861192E-02      0.1124574313E-01

    ------------------------------------------------
       NWT REQUIRED            3 OUTER ITERATIONS 
       AND A TOTAL OF          5 INNER ITERATIONS.
    ------------------------------------------------

 NO OUTPUT CONTROL FOR STRESS PERIOD   15   TIME STEP   10
 
 SOLVING FOR HEAD 
                                                   Max.-Head-Change                         Max.-Flux-Residual
  Residual-Control   Outer-Iter.   Inner-Iter.     Column Row Layer    Maximum-Head-Change  Column Row Layer    Maximum-Flux-Residual          L2-NORM 
          0                 1           2             4    7     1       0.1150430348E-01       4    7    1         0.6028709872E+00      0.1596164468E+01
          0                 2           2             4    7     1      -0.1118450969E-02       4    7    1        -0.6025446610E-01      0.1595635047E+00
          0                 3           1             4    7     1       0.7610497333E-04       4    7    1         0.4214623756E-02      0.1116445143E-01

    ------------------------------------------------
       NWT REQUIRED            3 OUTER ITERATIONS 
       AND A TOTAL OF          5 INNER ITERATIONS.
    ------------------------------------------------

 NO OUTPUT CONTROL FOR STRESS PERIOD   15   TIME STEP   11
 
 SOLVING FOR HEAD 
                                                   Max.-Head-Change                         Max.-Flux-Residual
  Residual-Control   Outer-Iter.   Inner-Iter.     Column Row Layer    Maximum-Head-Change  Column Row Layer    Maximum-Flux-Residual          L2-NORM 
          0                 1           2             4    7     1       0.1140703866E-01       4    7    1         0.5977547047E+00      0.1584675391E+01
          0                 2           2             4    7     1      -0.1108994824E-02       4    7    1        -0.5974311182E-01      0.1584159072E+00
          0                 3           1             4    7     1       0.7546153007E-04       4    7    1         0.4178855957E-02      0.1108418485E-01

    ------------------------------------------------
       NWT REQUIRED            3 OUTER ITERATIONS 
       AND A TOTAL OF          5 INNER ITERATIONS.
    ------------------------------------------------

 NO OUTPUT CONTROL FOR STRESS PERIOD   15   TIME STEP   12
 
 SOLVING FOR HEAD 
                                                   Max.-Head-Change                         Max.-Flux-Residual
  Residual-Control   Outer-Iter.   Inner-Iter.     Column Row Layer    Maximum-Head-Change  Column Row Layer    Maximum-Flux-Residual          L2-NORM 
          0                 1           2             4    7     1       0.1131088267E-01       4    7    1         0.5926969174E+00      0.1573318096E+01
          0                 2           2             4    7     1      -0.1099646481E-02       4    7    1        -0.5923760399E-01      0.1572810892E+00
          0                 3           1             4    7     1       0.7482542154E-04       4    7    1         0.4143497057E-02      0.1100479458E-01

    ------------------------------------------------
       NWT REQUIRED            3 OUTER ITERATIONS 
       AND A TOTAL OF          5 INNER ITERATIONS.
    ------------------------------------------------

 NO OUTPUT CONTROL FOR STRESS PERIOD   15   TIME STEP   13
 
 SOLVING FOR HEAD 
                                                   Max.-Head-Change                         Max.-Flux-Residual
  Residual-Control   Outer-Iter.   Inner-Iter.     Column Row Layer    Maximum-Head-Change  Column Row Layer    Maximum-Flux-Residual          L2-NORM 
          0                 1           2             4    7     1       0.1121582006E-01       4    7    1         0.5876966208E+00      0.1562096442E+01
          0                 2           2             4    7     1      -0.1090404438E-02       4    7    1        -0.5873784216E-01      0.1561595327E+00
          0                 3           1             4    7     1       0.7419654657E-04       4    7    1         0.4108540109E-02      0.1092633090E-01

    ------------------------------------------------
       NWT REQUIRED            3 OUTER ITERATIONS 
       AND A TOTAL OF          5 INNER ITERATIONS.
    ------------------------------------------------

 NO OUTPUT CONTROL FOR STRESS PERIOD   15   TIME STEP   14
 
 SOLVING FOR HEAD 
                                                   Max.-Head-Change                         Max.-Flux-Residual
  Residual-Control   Outer-Iter.   Inner-Iter.     Column Row Layer    Maximum-Head-Change  Column Row Layer    Maximum-Flux-Residual          L2-NORM 
          0                 1           2             4    7     1       0.1112196440E-01       4    7    1         0.5827603811E+00      0.1550995852E+01
          0                 2           2             4    7     1      -0.1081279736E-02       4    7    1        -0.5824448270E-01      0.1550498621E+00
          0                 3           1             4    7     1       0.7357565543E-04       4    7    1         0.4074030962E-02      0.1084869437E-01

    ------------------------------------------------
       NWT REQUIRED            3 OUTER ITERATIONS 
       AND A TOTAL OF          5 INNER ITERATIONS.
    ------------------------------------------------

 NO OUTPUT CONTROL FOR STRESS PERIOD   15   TIME STEP   15
 
 SOLVING FOR HEAD 
                                                   Max.-Head-Change                         Max.-Flux-Residual
  Residual-Control   Outer-Iter.   Inner-Iter.     Column Row Layer    Maximum-Head-Change  Column Row Layer    Maximum-Flux-Residual          L2-NORM 
          0                 1           2             4    7     1       0.1102929512E-01       4    7    1         0.5778867192E+00      0.1540034180E+01
          0                 2           2             4    7     1      -0.1072270375E-02       4    7    1        -0.5775737766E-01      0.1539539299E+00
          0                 3           1             4    7     1       0.7296261320E-04       4    7    1         0.4039959323E-02      0.1077203110E-01

    ------------------------------------------------
       NWT REQUIRED            3 OUTER ITERATIONS 
       AND A TOTAL OF          5 INNER ITERATIONS.
    ------------------------------------------------

 NO OUTPUT CONTROL FOR STRESS PERIOD   15   TIME STEP   16
 
 SOLVING FOR HEAD 
                                                   Max.-Head-Change                         Max.-Flux-Residual
  Residual-Control   Outer-Iter.   Inner-Iter.     Column Row Layer    Maximum-Head-Change  Column Row Layer    Maximum-Flux-Residual          L2-NORM 
          0                 1           2             4    7     1       0.1093765016E-01       4    7    1         0.5730672023E+00      0.1529184556E+01
          0                 2           2             4    7     1      -0.1063360600E-02       4    7    1        -0.5727568431E-01      0.1528690343E+00
          0                 3           1             4    7     1       0.7235634751E-04       4    7    1         0.4006266202E-02      0.1069613401E-01

    ------------------------------------------------
       NWT REQUIRED            3 OUTER ITERATIONS 
       AND A TOTAL OF          5 INNER ITERATIONS.
    ------------------------------------------------

 NO OUTPUT CONTROL FOR STRESS PERIOD   15   TIME STEP   17
 
 SOLVING FOR HEAD 
                                                   Max.-Head-Change                         Max.-Flux-Residual
  Residual-Control   Outer-Iter.   Inner-Iter.     Column Row Layer    Maximum-Head-Change  Column Row Layer    Maximum-Flux-Residual          L2-NORM 
          0                 1           2             4    7     1       0.1084715348E-01       4    7    1         0.5683081619E+00      0.1518459807E+01
          0                 2           2             4    7     1      -0.1054562462E-02       4    7    1        -0.5680003538E-01      0.1517960227E+00
          0                 3           1             4    7     1       0.7175767821E-04       4    7    1         0.3972995881E-02      0.1062275244E-01

    ------------------------------------------------
       NWT REQUIRED            3 OUTER ITERATIONS 
       AND A TOTAL OF          5 INNER ITERATIONS.
    ------------------------------------------------

 NO OUTPUT CONTROL FOR STRESS PERIOD   15   TIME STEP   18
 
 SOLVING FOR HEAD 
                                                   Max.-Head-Change                         Max.-Flux-Residual
  Residual-Control   Outer-Iter.   Inner-Iter.     Column Row Layer    Maximum-Head-Change  Column Row Layer    Maximum-Flux-Residual          L2-NORM 
          0                 1           2             4    7     1       0.1075777887E-01       4    7    1         0.5636086583E+00      0.1507853116E+01
          0                 2           2             4    7     1      -0.1045873413E-02       4    7    1        -0.5633033703E-01      0.1507359631E+00
          0                 3           1             4    7     1       0.7116643181E-04       4    7    1         0.3940141796E-02      0.1054687350E-01

    ------------------------------------------------
       NWT REQUIRED            3 OUTER ITERATIONS 
       AND A TOTAL OF          5 INNER ITERATIONS.
    ------------------------------------------------

 NO OUTPUT CONTROL FOR STRESS PERIOD   15   TIME STEP   19
 
 SOLVING FOR HEAD 
                                                   Max.-Head-Change                         Max.-Flux-Residual
  Residual-Control   Outer-Iter.   Inner-Iter.     Column Row Layer    Maximum-Head-Change  Column Row Layer    Maximum-Flux-Residual          L2-NORM 
          0                 1           2             4    7     1       0.1066937034E-01       4    7    1         0.5589599641E+00      0.1497359381E+01
          0                 2           2             4    7     1      -0.1037278286E-02       4    7    1        -0.5586571689E-01      0.1496865455E+00
          0                 3           1             4    7     1       0.7058157571E-04       4    7    1         0.3907642896E-02      0.1047346524E-01

    ------------------------------------------------
       NWT REQUIRED            3 OUTER ITERATIONS 
       AND A TOTAL OF          5 INNER ITERATIONS.
    ------------------------------------------------

 NO OUTPUT CONTROL FOR STRESS PERIOD   15   TIME STEP   20
 
 SOLVING FOR HEAD 
                                                   Max.-Head-Change                         Max.-Flux-Residual
  Residual-Control   Outer-Iter.   Inner-Iter.     Column Row Layer    Maximum-Head-Change  Column Row Layer    Maximum-Flux-Residual          L2-NORM 
          0                 1           2             4    7     1       0.1058204997E-01       4    7    1         0.5543687269E+00      0.1486986060E+01
          0                 2           2             4    7     1      -0.1028788953E-02       4    7    1        -0.5540683943E-01      0.1486491353E+00
          0                 3           1             4    7     1       0.7000391885E-04       4    7    1         0.3875545696E-02      0.1040089264E-01

    ------------------------------------------------
       NWT REQUIRED            3 OUTER ITERATIONS 
       AND A TOTAL OF          5 INNER ITERATIONS.
    ------------------------------------------------

 NO OUTPUT CONTROL FOR STRESS PERIOD   15   TIME STEP   21
 
 SOLVING FOR HEAD 
                                                   Max.-Head-Change                         Max.-Flux-Residual
  Residual-Control   Outer-Iter.   Inner-Iter.     Column Row Layer    Maximum-Head-Change  Column Row Layer    Maximum-Flux-Residual          L2-NORM 
          0                 1           2             4    7     1       0.1049579618E-01       4    7    1         0.5498339094E+00      0.1476720404E+01
          0                 2           2             4    7     1      -0.1020403313E-02       4    7    1        -0.5495360096E-01      0.1476225243E+00
          0                 3           1             4    7     1       0.6943331782E-04       4    7    1         0.3843842922E-02      0.1032906109E-01

    ------------------------------------------------
       NWT REQUIRED            3 OUTER ITERATIONS 
       AND A TOTAL OF          5 INNER ITERATIONS.
    ------------------------------------------------

 NO OUTPUT CONTROL FOR STRESS PERIOD   15   TIME STEP   22
 
 SOLVING FOR HEAD 
                                                   Max.-Head-Change                         Max.-Flux-Residual
  Residual-Control   Outer-Iter.   Inner-Iter.     Column Row Layer    Maximum-Head-Change  Column Row Layer    Maximum-Flux-Residual          L2-NORM 
          0                 1           2             4    7     1       0.1041045166E-01       4    7    1         0.5453470239E+00      0.1466564547E+01
          0                 2           2             4    7     1      -0.1012106073E-02       4    7    1        -0.5450515317E-01      0.1466069046E+00
          0                 3           1             4    7     1       0.6886873184E-04       4    7    1         0.3812475260E-02      0.1025800662E-01

    ------------------------------------------------
       NWT REQUIRED            3 OUTER ITERATIONS 
       AND A TOTAL OF          5 INNER ITERATIONS.
    ------------------------------------------------

 NO OUTPUT CONTROL FOR STRESS PERIOD   15   TIME STEP   23
 
 SOLVING FOR HEAD 
                                                   Max.-Head-Change                         Max.-Flux-Residual
  Residual-Control   Outer-Iter.   Inner-Iter.     Column Row Layer    Maximum-Head-Change  Column Row Layer    Maximum-Flux-Residual          L2-NORM 
          0                 1           2             4    7     1       0.1032614375E-01       4    7    1         0.5409146508E+00      0.1456523821E+01
          0                 2           2             4    7     1      -0.1003909613E-02       4    7    1        -0.5406215371E-01      0.1456027891E+00
          0                 3           1             4    7     1       0.6831100346E-04       4    7    1         0.3781488661E-02      0.1018775330E-01

    ------------------------------------------------
       NWT REQUIRED            3 OUTER ITERATIONS 
       AND A TOTAL OF          5 INNER ITERATIONS.
    ------------------------------------------------

 NO OUTPUT CONTROL FOR STRESS PERIOD   15   TIME STEP   24
 
 SOLVING FOR HEAD 
                                                   Max.-Head-Change                         Max.-Flux-Residual
  Residual-Control   Outer-Iter.   Inner-Iter.     Column Row Layer    Maximum-Head-Change  Column Row Layer    Maximum-Flux-Residual          L2-NORM 
          0                 1           2             4    7     1       0.1024284914E-01       4    7    1         0.5365360244E+00      0.1446585992E+01
          0                 2           2             4    7     1      -0.9958116687E-03       4    7    1        -0.5362452610E-01      0.1446089750E+00
          0                 3           1             4    7     1       0.6775997886E-04       4    7    1         0.3750877833E-02      0.1011823310E-01

    ------------------------------------------------
       NWT REQUIRED            3 OUTER ITERATIONS 
       AND A TOTAL OF          5 INNER ITERATIONS.
    ------------------------------------------------

 NO OUTPUT CONTROL FOR STRESS PERIOD   15   TIME STEP   25
 
 SOLVING FOR HEAD 
                                                   Max.-Head-Change                         Max.-Flux-Residual
  Residual-Control   Outer-Iter.   Inner-Iter.     Column Row Layer    Maximum-Head-Change  Column Row Layer    Maximum-Flux-Residual          L2-NORM 
          0                 1           2             4    7     1       0.1016054950E-01       4    7    1         0.5322099360E+00      0.1436762000E+01
          0                 2           2             4    7     1      -0.9878104549E-03       4    7    1        -0.5319214949E-01      0.1436265800E+00
          0                 3           1             4    7     1       0.6721553566E-04       4    7    1         0.3720634279E-02      0.1004949617E-01

    ------------------------------------------------
       NWT REQUIRED            3 OUTER ITERATIONS 
       AND A TOTAL OF          5 INNER ITERATIONS.
    ------------------------------------------------

 NO OUTPUT CONTROL FOR STRESS PERIOD   15   TIME STEP   26
 
 SOLVING FOR HEAD 
                                                   Max.-Head-Change                         Max.-Flux-Residual
  Residual-Control   Outer-Iter.   Inner-Iter.     Column Row Layer    Maximum-Head-Change  Column Row Layer    Maximum-Flux-Residual          L2-NORM 
          0                 1           2             4    7     1       0.1007909206E-01       4    7    1         0.5279280661E+00      0.1427033291E+01
          0                 2           2             4    7     1      -0.9798911215E-03       4    7    1        -0.5276419239E-01      0.1426537634E+00
          0                 3           1             4    7     1       0.6667666447E-04       4    7    1         0.3690699880E-02      0.9981440611E-02

    ------------------------------------------------
       NWT REQUIRED            3 OUTER ITERATIONS 
       AND A TOTAL OF          5 INNER ITERATIONS.
    ------------------------------------------------

 NO OUTPUT CONTROL FOR STRESS PERIOD   15   TIME STEP   27
 
 SOLVING FOR HEAD 
                                                   Max.-Head-Change                         Max.-Flux-Residual
  Residual-Control   Outer-Iter.   Inner-Iter.     Column Row Layer    Maximum-Head-Change  Column Row Layer    Maximum-Flux-Residual          L2-NORM 
          0                 1           2             4    7     1       0.9998601343E-02       4    7    1         0.5236972320E+00      0.1417410224E+01
          0                 2           2             4    7     1      -0.9720657736E-03       4    7    1        -0.5234133618E-01      0.1416914826E+00
          0                 3           1             4    7     1       0.6614418842E-04       4    7    1         0.3661122272E-02      0.9914123224E-02

    ------------------------------------------------
       NWT REQUIRED            3 OUTER ITERATIONS 
       AND A TOTAL OF          5 INNER ITERATIONS.
    ------------------------------------------------

 NO OUTPUT CONTROL FOR STRESS PERIOD   15   TIME STEP   28
 
 SOLVING FOR HEAD 
                                                   Max.-Head-Change                         Max.-Flux-Residual
  Residual-Control   Outer-Iter.   Inner-Iter.     Column Row Layer    Maximum-Head-Change  Column Row Layer    Maximum-Flux-Residual          L2-NORM 
          0                 1           2             4    7     1       0.9919180182E-02       4    7    1         0.5195165207E+00      0.1535668908E+01
          0                 2           2             4    7     1      -0.9643444005E-03       4    7    1        -0.5192348914E-01      0.1458918100E+00
          0                 3           1             4    7     1       0.6561878677E-04       4    7    1         0.3631895008E-02      0.1019530588E-01

    ------------------------------------------------
       NWT REQUIRED            3 OUTER ITERATIONS 
       AND A TOTAL OF          5 INNER ITERATIONS.
    ------------------------------------------------

 NO OUTPUT CONTROL FOR STRESS PERIOD   15   TIME STEP   29
 
 SOLVING FOR HEAD 
                                                   Max.-Head-Change                         Max.-Flux-Residual
  Residual-Control   Outer-Iter.   Inner-Iter.     Column Row Layer    Maximum-Head-Change  Column Row Layer    Maximum-Flux-Residual          L2-NORM 
          0                 1           2             4   13     1       0.2952128191E-01       4   13    1         0.1709908738E+01      0.3345349386E+01
          0                 2           2             2   13     1      -0.2632930077E-02       2   13    1        -0.1548881120E+00      0.2369259903E+00
          0                 3           1             2   13     1       0.1760526015E-03       2   13    1         0.1064941040E-01      0.1636246036E-01
          0                 4           1             2   13     1      -0.6807895193E-05       2   13    1        -0.4232910005E-03      0.6559733191E-03

    ------------------------------------------------
       NWT REQUIRED            4 OUTER ITERATIONS 
       AND A TOTAL OF          6 INNER ITERATIONS.
    ------------------------------------------------

 NO OUTPUT CONTROL FOR STRESS PERIOD   15   TIME STEP   30



 STREAM LISTING     PERIOD     15   STEP       30

 LAYER ROW COL. STREAM  RCH.  FLOW INTO     FLOW TO   FLOW OUT OF   OVRLND.     DIRECT     STREAM       STREAM     STREAM     STREAM   STREAMBED  STREAMBED
                SEG.NO.  NO.  STRM. RCH.    AQUIFER    STRM. RCH.    RUNOFF     PRECIP       ET          HEAD       DEPTH      WIDTH   CONDCTNC.   GRADIENT

   1    1    1     1     1    9.8001E+01  4.7086E-01   9.7531E+01  0.000E+00  0.000E+00  0.000E+00  1.09484E+03  1.792E+00  2.184E+01  9.826E-02  1.597E+00
   1    2    2     1     2    9.7531E+01  7.3063E-01   9.6800E+01  0.000E+00  0.000E+00  0.000E+00  1.08985E+03  1.790E+00  2.179E+01  1.525E-01  1.597E+00
   1    3    3     1     3    9.6800E+01  6.2448E-01   9.6176E+01  0.000E+00  0.000E+00  0.000E+00  1.08421E+03  1.787E+00  2.174E+01  1.304E-01  1.596E+00
   1    3    4     1     4    9.6176E+01  5.7618E-01   9.5599E+01  0.000E+00  0.000E+00  0.000E+00  1.07919E+03  1.785E+00  2.170E+01  1.204E-01  1.595E+00
   1    4    5     2     1    9.3599E+01  4.4168E-01   9.3158E+01  0.000E+00  0.000E+00  0.000E+00  1.07460E+03  2.663E+00  1.200E+01  7.800E-02  1.888E+00
   1    5    6     2     2    9.3158E+01  3.3935E-01   9.2818E+01  0.000E+00  0.000E+00  0.000E+00  1.06917E+03  2.656E+00  1.200E+01  6.000E-02  1.885E+00
   1    6    6     2     3    9.2818E+01  3.3900E-01   9.2479E+01  0.000E+00  0.000E+00  0.000E+00  1.06444E+03  2.650E+00  1.200E+01  6.000E-02  1.883E+00
   1    7    6     2     4    9.2479E+01  3.3865E-01   9.2141E+01  0.000E+00  0.000E+00  0.000E+00  1.05972E+03  2.644E+00  1.200E+01  6.000E-02  1.881E+00
   1    8    6     2     5    9.2141E+01  3.3830E-01   9.1802E+01  0.000E+00  0.000E+00  0.000E+00  1.05500E+03  2.638E+00  1.200E+01  6.000E-02  1.879E+00
   1    3    5     3     1    2.0000E+00  2.8252E-01   1.7175E+00  0.000E+00  0.000E+00  0.000E+00  1.07555E+03  1.909E+00  9.636E+00  7.227E-02  1.955E+00
   1    3    6     3     2    1.7175E+00  2.4905E-01   1.4684E+00  0.000E+00  0.000E+00  0.000E+00  1.07264E+03  1.727E+00  8.909E+00  6.682E-02  1.864E+00
   1    3    7     3     3    1.4684E+00  1.9718E-01   1.2712E+00  0.000E+00  0.000E+00  0.000E+00  1.06987E+03  1.555E+00  8.218E+00  5.547E-02  1.777E+00
   1    4    8     3     4    1.2712E+00  2.2567E-01   1.0456E+00  0.000E+00  0.000E+00  0.000E+00  1.06682E+03  1.364E+00  7.455E+00  6.709E-02  1.682E+00
   1    5    8     3     5    1.0456E+00  1.5790E-01   8.8768E-01  0.000E+00  0.000E+00  0.000E+00  1.06362E+03  1.164E+00  6.655E+00  4.991E-02  1.582E+00
   1    6    8     3     6    8.8768E-01  5.5980E-02   8.3170E-01  0.000E+00  0.000E+00  0.000E+00  1.06158E+03  1.036E+00  6.145E+00  1.844E-02  1.518E+00
   1    5   10     4     1    1.0000E+01  9.0919E-02   9.9091E+00  0.000E+00  0.000E+00  0.000E+00  1.07836E+03  6.368E-01  1.000E+01  2.500E-02  1.212E+00
   1    5    9     4     2    9.9091E+00  1.8158E-01   9.7275E+00  0.000E+00  0.000E+00  0.000E+00  1.07154E+03  6.315E-01  1.000E+01  5.000E-02  1.211E+00
   1    6    8     4     3    9.7275E+00  1.2689E-01   9.6006E+00  0.000E+00  0.000E+00  0.000E+00  1.06381E+03  6.256E-01  1.000E+01  3.500E-02  1.209E+00
   1    6    8     5     1    1.0432E+01  2.2686E-01   1.0205E+01  0.000E+00  0.000E+00  0.000E+00  1.05868E+03  6.790E-01  1.542E+01  6.166E-02  1.226E+00
   1    7    7     5     2    1.0205E+01  2.7894E-01   9.9265E+00  0.000E+00  0.000E+00  0.000E+00  1.05417E+03  6.732E-01  1.519E+01  7.594E-02  1.224E+00
   1    8    7     5     3    9.9265E+00  1.9221E-01   9.7343E+00  0.000E+00  0.000E+00  0.000E+00  1.04992E+03  6.676E-01  1.497E+01  5.241E-02  1.223E+00
   1    8    6     5     4    9.7343E+00  1.3577E-01   9.5985E+00  0.000E+00  0.000E+00  0.000E+00  1.04691E+03  6.637E-01  1.482E+01  3.706E-02  1.221E+00
   1    9    6     6     1    1.0140E+02  3.4955E-01   1.0105E+02  0.000E+00  0.000E+00  0.000E+00  1.04555E+03  2.826E+00  1.200E+01  6.000E-02  1.942E+00
   1   10    7     6     2    1.0105E+02  3.4920E-01   1.0070E+02  0.000E+00  0.000E+00  0.000E+00  1.04100E+03  2.820E+00  1.200E+01  6.000E-02  1.940E+00
   1   11    7     6     3    1.0070E+02  3.4885E-01   1.0035E+02  0.000E+00  0.000E+00  0.000E+00  1.03645E+03  2.814E+00  1.200E+01  6.000E-02  1.938E+00
   1   12    7     6     4    1.0035E+02  3.4850E-01   1.0000E+02  0.000E+00  0.000E+00  0.000E+00  1.03190E+03  2.808E+00  1.200E+01  6.000E-02  1.936E+00
   1   13    7     6     5    1.0000E+02  3.8552E-02   9.9966E+01  0.000E+00  0.000E+00  0.000E+00  1.02871E+03  2.805E+00  1.200E+01  2.400E-02  5.354E-01
   1   14    9     7     1    1.5000E+02  1.3296E+00   1.4867E+02  0.000E+00  0.000E+00  0.000E+00  1.03987E+03  2.288E+00  5.529E+01  5.593E-01  7.924E-01
   1   13    8     7     2    1.4867E+02  1.8138E+00   1.4686E+02  0.000E+00  0.000E+00  0.000E+00  1.03478E+03  2.279E+00  5.526E+01  6.148E-01  9.834E-01
   1   13    7     7     3    1.4686E+02  1.4421E+00   1.4541E+02  0.000E+00  0.000E+00  0.000E+00  1.02969E+03  2.271E+00  5.522E+01  5.585E-01  8.608E-01
   1   13    6     8     1    2.4538E+02  1.2486E+00   2.4413E+02  0.000E+00  0.000E+00  0.000E+00  1.02526E+03  3.385E+00  4.908E+01  5.001E-01  8.322E-01
   1   13    5     8     2    2.4413E+02  4.0264E-01   2.4373E+02  0.000E+00  0.000E+00  0.000E+00  1.01901E+03  3.380E+00  4.901E+01  4.995E-01  2.687E-01
   1   13    4     8     3    2.4373E+02 -8.9525E-01   2.4462E+02  0.000E+00  0.000E+00  0.000E+00  1.01276E+03  3.382E+00  4.903E+01  4.997E+00 -5.972E-02
   1   13    3     8     4    2.4462E+02 -2.3038E+00   2.4693E+02  0.000E+00  0.000E+00  0.000E+00  1.00651E+03  3.390E+00  4.915E+01  5.009E+00 -1.533E-01
   1   13    2     8     5    2.4693E+02 -1.0753E+00   2.4800E+02  0.000E+00  0.000E+00  0.000E+00  1.00027E+03  3.399E+00  4.928E+01  5.022E+00 -7.137E-02
   1   13    1     8     6    2.4800E+02 -1.1107E+00   2.4911E+02  0.000E+00  0.000E+00  0.000E+00  9.95279E+02  3.404E+00  4.936E+01  3.018E+00 -1.227E-01





UNSATURATED ZONE PACKAGE VOLUMETRIC BUDGET FOR  TIME STEP    30 STRESS PERIOD   15
  ------------------------------------------------------------------------------



     CUMULATIVE VOLUMES      L**3       RATES FOR THIS TIME STEP      L**3/T
     ------------------                 ------------------------

           IN:                                      IN:
           ---                                      ---
        INFILTRATION =   632841587.4636          INFILTRATION =           4.4075

          OUT:                                     OUT:
          ----                                     ----
              UZF ET =   502969315.5278                UZF ET =           0.7253
        UZF RECHARGE =    73356100.3154          UZF RECHARGE =           0.3857

            IN - OUT =    56516171.6203              IN - OUT =           3.2964

          STORAGE:                                 STORAGE:
          --------                                 --------
      STORAGE CHANGE =    56516739.0366        STORAGE CHANGE =           3.2964

 PERCENT DISCREPANCY IS DIFFERENCE BETWEEN IN-OUT MINUS CHANGE IN STORAGE
 DIVIDED BY THE AVERAGE OF IN AND OUT TIMES 100

 PERCENT DISCREPANCY =          -0.00     PERCENT DISCREPANCY =           0.00






1
  VOLUMETRIC BUDGET FOR AGRICULTURAL FIELDS AT TIME STEP   30, STRESS PERIOD  15
  ------------------------------------------------------------------------------

     CUMULATIVE VOLUMES      L**3       RATES FOR THIS TIME STEP      L**3/T
     ------------------                 ------------------------

           IN:                                      IN:
           ---                                      ---
               AG WELLS  =   470484032.0000                 AG WELLS  =           0.0000
      DIVERSION SEGMENTS =           0.0000        DIVERSION SEGMENTS =           0.0000
           GW IRRIGATION =           0.0000             GW IRRIGATION =           0.0000
           SW IRRIGATION =           0.0000             SW IRRIGATION =           0.0000
        SYSTEM LOSSES GW =           0.0000          SYSTEM LOSSES GW =           0.0000
        SYSTEM LOSSES SW =           0.0000          SYSTEM LOSSES SW =           0.0000

                TOTAL IN =   470484032.0000                  TOTAL IN =           0.0000

          OUT:                                     OUT:
          ----                                     ----
               AG WELLS  =           0.0000                 AG WELLS  =           0.0000
      DIVERSION SEGMENTS =           0.0000        DIVERSION SEGMENTS =           0.0000
           GW IRRIGATION =   470484032.0000             GW IRRIGATION =           0.0000
           SW IRRIGATION =           0.0000             SW IRRIGATION =           0.0000
        SYSTEM LOSSES GW =           0.0000          SYSTEM LOSSES GW =           0.0000
        SYSTEM LOSSES SW =           0.0000          SYSTEM LOSSES SW =           0.0000

               TOTAL OUT =   470484032.0000                 TOTAL OUT =           0.0000

                IN - OUT =           0.0000                  IN - OUT =           0.0000

     PERCENT DISCREPANCY =           0.00         PERCENT DISCREPANCY =           0.00



1
  VOLUMETRIC BUDGET FOR ENTIRE MODEL AT END OF TIME STEP   30, STRESS PERIOD  15
  ------------------------------------------------------------------------------

     CUMULATIVE VOLUMES      L**3       RATES FOR THIS TIME STEP      L**3/T
     ------------------                 ------------------------

           IN:                                      IN:
           ---                                      ---
             STORAGE     =   618702208.0000               STORAGE     =           3.5718
       CONSTANT HEAD     =           0.0000         CONSTANT HEAD     =           0.0000
     HEAD DEP BOUNDS     =    10533742.0000       HEAD DEP BOUNDS     =           0.2853
      STREAM LEAKAGE     =   454625600.0000        STREAM LEAKAGE     =          14.2719
        UZF RECHARGE     =    73356112.0000          UZF RECHARGE     =           0.3857
               GW ET     =           0.0000                 GW ET     =           0.0000
     SURFACE LEAKAGE     =           0.0000       SURFACE LEAKAGE     =           0.0000
           AG WELLS      =           0.0000             AG WELLS      =           0.0000

                TOTAL IN =  1157217664.0000                  TOTAL IN =          18.5147

          OUT:                                     OUT:
          ----                                     ----
             STORAGE     =   276784576.0000               STORAGE     =          12.8391
       CONSTANT HEAD     =           0.0000         CONSTANT HEAD     =           0.0000
     HEAD DEP BOUNDS     =    10850587.0000       HEAD DEP BOUNDS     =           0.2906
      STREAM LEAKAGE     =   385500256.0000        STREAM LEAKAGE     =           5.3850
        UZF RECHARGE     =           0.0000          UZF RECHARGE     =           0.0000
               GW ET     =    13595227.0000                 GW ET     =           0.0000
     SURFACE LEAKAGE     =           0.0000       SURFACE LEAKAGE     =           0.0000
           AG WELLS      =   470484032.0000             AG WELLS      =           0.0000

               TOTAL OUT =  1157214720.0000                 TOTAL OUT =          18.5147

                IN - OUT =        2944.0000                  IN - OUT =       2.4796E-05

     PERCENT DISCREPANCY =           0.00         PERCENT DISCREPANCY =           0.00






         TIME SUMMARY AT END OF TIME STEP   30 IN STRESS PERIOD   15
                    SECONDS     MINUTES      HOURS       DAYS        YEARS
                    -----------------------------------------------------------
   TIME STEP LENGTH  87667.      1461.1      24.352      1.0147     2.77799E-03
 STRESS PERIOD TIME 2.63000E+06  43833.      730.56      30.440     8.33397E-02
         TOTAL TIME 3.69063E+07 6.15106E+05  10252.      427.16      1.1695    
1
1
                            STRESS PERIOD NO.   16, LENGTH =   2630000.    
                            -----------------------------------------------

                              NUMBER OF TIME STEPS =    30

                               MULTIPLIER FOR DELT =     1.000

                            INITIAL TIME STEP SIZE =   87666.66    

 REUSING NON-PARAMETER GHB CELLS FROM LAST STRESS PERIOD

      2 GHB CELLS

 REUSING STREAM SEGMENT DATA FROM LAST STRESS PERIOD



            AREAL INFILTRATION RATE
 READING ON UNIT   19 WITH FORMAT: (10F4.0)            

            1           2           3           4           5           6           7           8           9          10
 ........................................................................................................................
   1   1.2000E-09   0.000       0.000       0.000       0.000       0.000       0.000       0.000       0.000       0.000    
   2   2.1000E-09  2.0000E-09  8.0000E-10  8.5000E-09   0.000       0.000       0.000       0.000       0.000       0.000    
   3   5.0000E-10  1.1000E-09  8.8000E-09  5.5000E-09   0.000       0.000       0.000       0.000       0.000       0.000    
   4   8.5000E-09  1.1000E-09  1.1000E-09  1.1000E-09  2.0000E-09   0.000       0.000       0.000       0.000       0.000    
   5   8.5000E-09  1.1000E-09  1.1000E-09  1.1000E-09  1.1000E-09   0.000       0.000       0.000       0.000       0.000    
   6   8.5000E-09  5.2000E-09  2.1000E-09  1.1000E-09  1.5000E-09   0.000       0.000       0.000       0.000       0.000    
   7   8.5000E-09  5.2000E-09  2.1000E-09  1.2000E-09  2.0000E-09   0.000       0.000       0.000       0.000       0.000    
   8   5.0000E-10  5.2000E-09  2.1000E-09  1.2000E-09  5.0000E-09   0.000       0.000       0.000       0.000       0.000    
   9   5.0000E-10  5.2000E-09  2.1000E-09  1.2000E-09  5.0000E-09   0.000       0.000       0.000       0.000       0.000    
  10   5.0000E-10  5.2000E-09  2.1000E-09  1.2000E-09  5.8000E-09   0.000       0.000       0.000       0.000       0.000    
  11   1.0000E-10  1.1000E-09  1.1000E-09  1.2000E-09  5.0000E-09   0.000       0.000       0.000       0.000       0.000    
  12   1.1000E-09  1.1000E-09  1.1000E-09  1.1000E-09  2.0000E-09   0.000       0.000       0.000       0.000       0.000    
  13   1.1000E-09  2.2000E-09  2.2000E-09  2.1000E-09  1.0000E-09   0.000       0.000       0.000       0.000       0.000    
  14   2.0000E-10  5.5000E-09  5.5000E-09  5.2000E-09  1.0000E-09   0.000       0.000       0.000       0.000       0.000    
  15    0.000      8.8000E-09  8.8000E-09   0.000       0.000       0.000       0.000       0.000       0.000       0.000    

                  ET RATE =  5.000000E-10

 USING ET EXTINCTION DEPTH FROM PREVIOUS STRESS PERIOD. CURRENT PERIOD IS:      16

 USING EXTINCTION WATER CONTENT FROM PREVIOUS STRESS PERIOD. CURRENT PERIOD IS:      16

 USING AIR ENTRY PRESSURE FROM PREVIOUS STRESS PERIOD. CURRENT PERIOD IS:      16

 USING ROOT PRESSURE HEAD FROM PREVIOUS STRESS PERIOD. CURRENT PERIOD IS:      16

 USING ROOT ACTIVITY FROM PREVIOUS STRESS PERIOD. CURRENT PERIOD IS:      16

 PROCESSING AG STRESS PERIOD DATA

 READING AG STRESS PERIOD DATA

 READING IRRIGATION WELL

 END PROCESSING AG STRESS PERIOD DATA OPTIONS
 
 SOLVING FOR HEAD 
                                                   Max.-Head-Change                         Max.-Flux-Residual
  Residual-Control   Outer-Iter.   Inner-Iter.     Column Row Layer    Maximum-Head-Change  Column Row Layer    Maximum-Flux-Residual          L2-NORM 
          0                 1           2             2   13     1       0.2642708993E-01       4   13    1         0.1518284081E+01      0.3103547026E+01
          0                 2           2             2   13     1      -0.2423846530E-02       2   13    1        -0.1425700030E+00      0.2269472042E+00
          0                 3           1             2   13     1       0.1621180659E-03       2   13    1         0.9805305952E-02      0.1568864018E-01
          0                 4           1             2   13     1      -0.6281499338E-05       2   13    1        -0.3905131089E-03      0.6303876751E-03

    ------------------------------------------------
       NWT REQUIRED            4 OUTER ITERATIONS 
       AND A TOTAL OF          6 INNER ITERATIONS.
    ------------------------------------------------

 NO OUTPUT CONTROL FOR STRESS PERIOD   16   TIME STEP    1
 
 SOLVING FOR HEAD 
                                                   Max.-Head-Change                         Max.-Flux-Residual
  Residual-Control   Outer-Iter.   Inner-Iter.     Column Row Layer    Maximum-Head-Change  Column Row Layer    Maximum-Flux-Residual          L2-NORM 
          0                 1           2             2   13     1       0.2428778463E-01       2   13    1         0.1379211517E+01      0.2890088792E+01
          0                 2           2             2   13     1      -0.2230711122E-02       2   13    1        -0.1311960503E+00      0.2179033044E+00
          0                 3           1             2   13     1       0.1491949338E-03       2   13    1         0.9022394816E-02      0.1507548544E-01
          0                 4           1             2   13     1      -0.5797913567E-05       2   13    1        -0.3603939558E-03      0.6069394986E-03

    ------------------------------------------------
       NWT REQUIRED            4 OUTER ITERATIONS 
       AND A TOTAL OF          6 INNER ITERATIONS.
    ------------------------------------------------

 NO OUTPUT CONTROL FOR STRESS PERIOD   16   TIME STEP    2
 
 SOLVING FOR HEAD 
                                                   Max.-Head-Change                         Max.-Flux-Residual
  Residual-Control   Outer-Iter.   Inner-Iter.     Column Row Layer    Maximum-Head-Change  Column Row Layer    Maximum-Flux-Residual          L2-NORM 
          0                 1           2             2   13     1       0.2231895314E-01       2   13    1         0.1267398208E+01      0.2702026047E+01
          0                 2           2             2   13     1      -0.2052570815E-02       2   13    1        -0.1207030888E+00      0.2097006729E+00
          0                 3           1             2   13     1       0.1373079560E-03       2   13    1         0.8302334108E-02      0.1452195714E-01
          0                 4           1             2   13     1      -0.5333656107E-05       2   13    1        -0.3314999967E-03      0.5851151002E-03

    ------------------------------------------------
       NWT REQUIRED            4 OUTER ITERATIONS 
       AND A TOTAL OF          6 INNER ITERATIONS.
    ------------------------------------------------

 NO OUTPUT CONTROL FOR STRESS PERIOD   16   TIME STEP    3
 
 SOLVING FOR HEAD 
                                                   Max.-Head-Change                         Max.-Flux-Residual
  Residual-Control   Outer-Iter.   Inner-Iter.     Column Row Layer    Maximum-Head-Change  Column Row Layer    Maximum-Flux-Residual          L2-NORM 
          0                 1           2             2   13     1       0.2050760586E-01       2   13    1         0.1164517350E+01      0.2536366806E+01
          0                 2           2             2   13     1      -0.1888288310E-02       2   13    1        -0.1110278613E+00      0.2022789981E+00
          0                 3           1             2   13     1       0.1263361214E-03       2   13    1         0.7637741825E-02      0.1401996346E-01
          0                 4           1             2   13     1      -0.4899315706E-05       2   13    1        -0.3044478290E-03      0.5652542077E-03

    ------------------------------------------------
       NWT REQUIRED            4 OUTER ITERATIONS 
       AND A TOTAL OF          6 INNER ITERATIONS.
    ------------------------------------------------

 NO OUTPUT CONTROL FOR STRESS PERIOD   16   TIME STEP    4
 
 SOLVING FOR HEAD 
                                                   Max.-Head-Change                         Max.-Flux-Residual
  Residual-Control   Outer-Iter.   Inner-Iter.     Column Row Layer    Maximum-Head-Change  Column Row Layer    Maximum-Flux-Residual          L2-NORM 
          0                 1           2             2   13     1       0.1884166514E-01       2   13    1         0.1069886475E+01      0.2390633258E+01
          0                 2           2             2   13     1      -0.1736880108E-02       2   13    1        -0.1021100400E+00      0.1955578649E+00
          0                 3           1             2   13     1       0.1162298638E-03       2   13    1         0.7025659619E-02      0.1356576497E-01
          0                 4           1             2   13     1      -0.4511154482E-05       2   13    1        -0.2802973113E-03      0.5476622970E-03

    ------------------------------------------------
       NWT REQUIRED            4 OUTER ITERATIONS 
       AND A TOTAL OF          6 INNER ITERATIONS.
    ------------------------------------------------

 NO OUTPUT CONTROL FOR STRESS PERIOD   16   TIME STEP    5
 
 SOLVING FOR HEAD 
                                                   Max.-Head-Change                         Max.-Flux-Residual
  Residual-Control   Outer-Iter.   Inner-Iter.     Column Row Layer    Maximum-Head-Change  Column Row Layer    Maximum-Flux-Residual          L2-NORM 
          0                 1           2             2   13     1       0.1730987321E-01       2   13    1         0.9828685454E+00      0.2262394942E+01
          0                 2           2             2   13     1      -0.1597379715E-02       2   13    1        -0.9389527997E-01      0.1894724244E+00
          0                 3           1             2   13     1       0.1069167650E-03       2   13    1         0.6461626332E-02      0.1315401112E-01
          0                 4           1             2   13     1      -0.4146693310E-05       2   13    1        -0.2576035395E-03      0.5315240480E-03

    ------------------------------------------------
       NWT REQUIRED            4 OUTER ITERATIONS 
       AND A TOTAL OF          6 INNER ITERATIONS.
    ------------------------------------------------

 NO OUTPUT CONTROL FOR STRESS PERIOD   16   TIME STEP    6
 
 SOLVING FOR HEAD 
                                                   Max.-Head-Change                         Max.-Flux-Residual
  Residual-Control   Outer-Iter.   Inner-Iter.     Column Row Layer    Maximum-Head-Change  Column Row Layer    Maximum-Flux-Residual          L2-NORM 
          0                 1           2             2   13     1       0.1590180923E-01       2   13    1         0.9028738370E+00      0.2149626974E+01
          0                 2           2             2   13     1      -0.1468950576E-02       2   13    1        -0.8633110129E-01      0.1839558098E+00
          0                 3           1             2   13     1       0.9830159292E-04       2   13    1         0.5939953062E-02      0.1277951609E-01

    ------------------------------------------------
       NWT REQUIRED            3 OUTER ITERATIONS 
       AND A TOTAL OF          5 INNER ITERATIONS.
    ------------------------------------------------

 NO OUTPUT CONTROL FOR STRESS PERIOD   16   TIME STEP    7
 
 SOLVING FOR HEAD 
                                                   Max.-Head-Change                         Max.-Flux-Residual
  Residual-Control   Outer-Iter.   Inner-Iter.     Column Row Layer    Maximum-Head-Change  Column Row Layer    Maximum-Flux-Residual          L2-NORM 
          0                 1           2             2   13     1       0.1460731319E-01       2   13    1         0.8293264951E+00      0.2050476285E+01
          0                 2           2             2   13     1      -0.1350646267E-02       2   13    1        -0.7936518876E-01      0.1789535261E+00
          0                 3           1             2   13     1       0.9040886260E-04       2   13    1         0.5462048469E-02      0.1244055822E-01

    ------------------------------------------------
       NWT REQUIRED            3 OUTER ITERATIONS 
       AND A TOTAL OF          5 INNER ITERATIONS.
    ------------------------------------------------

 NO OUTPUT CONTROL FOR STRESS PERIOD   16   TIME STEP    8
 
 SOLVING FOR HEAD 
                                                   Max.-Head-Change                         Max.-Flux-Residual
  Residual-Control   Outer-Iter.   Inner-Iter.     Column Row Layer    Maximum-Head-Change  Column Row Layer    Maximum-Flux-Residual          L2-NORM 
          0                 1           2             2   13     1       0.1341794368E-01       2   13    1         0.7617489261E+00      0.1963309395E+01
          0                 2           2             2   13     1      -0.1241795773E-02       2   13    1        -0.7295606746E-01      0.1744097582E+00
          0                 3           1             2   13     1       0.8313051728E-04       2   13    1         0.5021398696E-02      0.1213228760E-01

    ------------------------------------------------
       NWT REQUIRED            3 OUTER ITERATIONS 
       AND A TOTAL OF          5 INNER ITERATIONS.
    ------------------------------------------------

 NO OUTPUT CONTROL FOR STRESS PERIOD   16   TIME STEP    9
 
 SOLVING FOR HEAD 
                                                   Max.-Head-Change                         Max.-Flux-Residual
  Residual-Control   Outer-Iter.   Inner-Iter.     Column Row Layer    Maximum-Head-Change  Column Row Layer    Maximum-Flux-Residual          L2-NORM 
          0                 1           2             2   13     1       0.1232531997E-01       2   13    1         0.6996658814E+00      0.1886658464E+01
          0                 2           2             2   13     1      -0.1141633395E-02       2   13    1        -0.6705827880E-01      0.1702787664E+00
          0                 3           1             2   13     1       0.7641774854E-04       2   13    1         0.4615048145E-02      0.1185144405E-01

    ------------------------------------------------
       NWT REQUIRED            3 OUTER ITERATIONS 
       AND A TOTAL OF          5 INNER ITERATIONS.
    ------------------------------------------------

 NO OUTPUT CONTROL FOR STRESS PERIOD   16   TIME STEP   10
 
 SOLVING FOR HEAD 
                                                   Max.-Head-Change                         Max.-Flux-Residual
  Residual-Control   Outer-Iter.   Inner-Iter.     Column Row Layer    Maximum-Head-Change  Column Row Layer    Maximum-Flux-Residual          L2-NORM 
          0                 1           2             2   13     1       0.1132170204E-01       2   13    1         0.6426386207E+00      0.1819184522E+01
          0                 2           2             2   13     1      -0.1049532925E-02       2   13    1        -0.6163583689E-01      0.1665194850E+00
          0                 3           1             2   13     1       0.7025389671E-04       2   13    1         0.4241981497E-02      0.1159597050E-01

    ------------------------------------------------
       NWT REQUIRED            3 OUTER ITERATIONS 
       AND A TOTAL OF          5 INNER ITERATIONS.
    ------------------------------------------------

 NO OUTPUT CONTROL FOR STRESS PERIOD   16   TIME STEP   11
 
 SOLVING FOR HEAD 
                                                   Max.-Head-Change                         Max.-Flux-Residual
  Residual-Control   Outer-Iter.   Inner-Iter.     Column Row Layer    Maximum-Head-Change  Column Row Layer    Maximum-Flux-Residual          L2-NORM 
          0                 1           2             2   13     1       0.1040002821E-01       2   13    1         0.5902665821E+00      0.1759732164E+01
          0                 2           2             2   13     1      -0.9647763463E-03       2   13    1        -0.5664722208E-01      0.1630895868E+00
          0                 3           1             2   13     1       0.6454919931E-04       2   13    1         0.3896709100E-02      0.1136173861E-01

    ------------------------------------------------
       NWT REQUIRED            3 OUTER ITERATIONS 
       AND A TOTAL OF          5 INNER ITERATIONS.
    ------------------------------------------------

 NO OUTPUT CONTROL FOR STRESS PERIOD   16   TIME STEP   12
 
 SOLVING FOR HEAD 
                                                   Max.-Head-Change                         Max.-Flux-Residual
  Residual-Control   Outer-Iter.   Inner-Iter.     Column Row Layer    Maximum-Head-Change  Column Row Layer    Maximum-Flux-Residual          L2-NORM 
          0                 1           2             2   13     1       0.9553719689E-02       2   13    1         0.5421766166E+00      0.1707248005E+01
          0                 2           2             2   13     1      -0.8868842877E-03       2   13    1        -0.5206312344E-01      0.1599560769E+00
          0                 3           1             2   13     1       0.5936144368E-04       2   13    1         0.3582788751E-02      0.1114905835E-01

    ------------------------------------------------
       NWT REQUIRED            3 OUTER ITERATIONS 
       AND A TOTAL OF          5 INNER ITERATIONS.
    ------------------------------------------------

 NO OUTPUT CONTROL FOR STRESS PERIOD   16   TIME STEP   13
 
 SOLVING FOR HEAD 
                                                   Max.-Head-Change                         Max.-Flux-Residual
  Residual-Control   Outer-Iter.   Inner-Iter.     Column Row Layer    Maximum-Head-Change  Column Row Layer    Maximum-Flux-Residual          L2-NORM 
          0                 1           2             4    7     1       0.8866950100E-02       2   13    1         0.4980230456E+00      0.1660837841E+01
          0                 2           2             4    7     1      -0.8620458362E-03       2   13    1        -0.4784960475E-01      0.1570861650E+00
          0                 3           1             4    7     1       0.5865785629E-04       2   13    1         0.3292034048E-02      0.1095350214E-01

    ------------------------------------------------
       NWT REQUIRED            3 OUTER ITERATIONS 
       AND A TOTAL OF          5 INNER ITERATIONS.
    ------------------------------------------------

 NO OUTPUT CONTROL FOR STRESS PERIOD   16   TIME STEP   14
 
 SOLVING FOR HEAD 
                                                   Max.-Head-Change                         Max.-Flux-Residual
  Residual-Control   Outer-Iter.   Inner-Iter.     Column Row Layer    Maximum-Head-Change  Column Row Layer    Maximum-Flux-Residual          L2-NORM 
          0                 1           2             4    7     1       0.8804539325E-02       4    7    1         0.4607166071E+00      0.1619686106E+01
          0                 2           2             4    7     1      -0.8559782246E-03       4    7    1        -0.4604664348E-01      0.1544531413E+00
          0                 3           1             4    7     1       0.5824498485E-04       4    7    1         0.3220824944E-02      0.1077396534E-01

    ------------------------------------------------
       NWT REQUIRED            3 OUTER ITERATIONS 
       AND A TOTAL OF          5 INNER ITERATIONS.
    ------------------------------------------------

 NO OUTPUT CONTROL FOR STRESS PERIOD   16   TIME STEP   15
 
 SOLVING FOR HEAD 
                                                   Max.-Head-Change                         Max.-Flux-Residual
  Residual-Control   Outer-Iter.   Inner-Iter.     Column Row Layer    Maximum-Head-Change  Column Row Layer    Maximum-Flux-Residual          L2-NORM 
          0                 1           2             4    7     1       0.8742941642E-02       4    7    1         0.4574733175E+00      0.1583089340E+01
          0                 2           2             4    7     1      -0.8499896620E-03       4    7    1        -0.4572248855E-01      0.1520310163E+00
          0                 3           1             4    7     1       0.5783749205E-04       4    7    1         0.3198151166E-02      0.1060776286E-01

    ------------------------------------------------
       NWT REQUIRED            3 OUTER ITERATIONS 
       AND A TOTAL OF          5 INNER ITERATIONS.
    ------------------------------------------------

 NO OUTPUT CONTROL FOR STRESS PERIOD   16   TIME STEP   16
 
 SOLVING FOR HEAD 
                                                   Max.-Head-Change                         Max.-Flux-Residual
  Residual-Control   Outer-Iter.   Inner-Iter.     Column Row Layer    Maximum-Head-Change  Column Row Layer    Maximum-Flux-Residual          L2-NORM 
          0                 1           2             4    7     1       0.8682136177E-02       4    7    1         0.4542721853E+00      0.1550429957E+01
          0                 2           2             4    7     1      -0.8440781204E-03       4    7    1        -0.4540254718E-01      0.1497968559E+00
          0                 3           1             4    7     1       0.5743524062E-04       4    7    1         0.3175772121E-02      0.1045565230E-01

    ------------------------------------------------
       NWT REQUIRED            3 OUTER ITERATIONS 
       AND A TOTAL OF          5 INNER ITERATIONS.
    ------------------------------------------------

 NO OUTPUT CONTROL FOR STRESS PERIOD   16   TIME STEP   17
 
 SOLVING FOR HEAD 
                                                   Max.-Head-Change                         Max.-Flux-Residual
  Residual-Control   Outer-Iter.   Inner-Iter.     Column Row Layer    Maximum-Head-Change  Column Row Layer    Maximum-Flux-Residual          L2-NORM 
          0                 1           2             4    7     1       0.8622235092E-02       4    7    1         0.4511195003E+00      0.1521181418E+01
          0                 2           2             4    7     1      -0.8382545048E-03       4    7    1        -0.4508744802E-01      0.1477304190E+00
          0                 3           1             4    7     1       0.5703897217E-04       4    7    1         0.3153731804E-02      0.1031385397E-01

    ------------------------------------------------
       NWT REQUIRED            3 OUTER ITERATIONS 
       AND A TOTAL OF          5 INNER ITERATIONS.
    ------------------------------------------------

 NO OUTPUT CONTROL FOR STRESS PERIOD   16   TIME STEP   18
 
 SOLVING FOR HEAD 
                                                   Max.-Head-Change                         Max.-Flux-Residual
  Residual-Control   Outer-Iter.   Inner-Iter.     Column Row Layer    Maximum-Head-Change  Column Row Layer    Maximum-Flux-Residual          L2-NORM 
          0                 1           2             4    7     1       0.8562935178E-02       4    7    1         0.4479989616E+00      0.1494875696E+01
          0                 2           2             4    7     1      -0.8324893356E-03       4    7    1        -0.4477556178E-01      0.1458159629E+00
          0                 3           1             4    7     1       0.5664668043E-04       4    7    1         0.3131916206E-02      0.1018272023E-01

    ------------------------------------------------
       NWT REQUIRED            3 OUTER ITERATIONS 
       AND A TOTAL OF          5 INNER ITERATIONS.
    ------------------------------------------------

 NO OUTPUT CONTROL FOR STRESS PERIOD   16   TIME STEP   19
 
 SOLVING FOR HEAD 
                                                   Max.-Head-Change                         Max.-Flux-Residual
  Residual-Control   Outer-Iter.   Inner-Iter.     Column Row Layer    Maximum-Head-Change  Column Row Layer    Maximum-Flux-Residual          L2-NORM 
          0                 1           2             4    7     1       0.8504501432E-02       4    7    1         0.4449243370E+00      0.1471111583E+01
          0                 2           2             4    7     1      -0.8268083758E-03       4    7    1        -0.4446826451E-01      0.1440351626E+00
          0                 3           1             4    7     1       0.5626011866E-04       4    7    1         0.3110421590E-02      0.1006077392E-01

    ------------------------------------------------
       NWT REQUIRED            3 OUTER ITERATIONS 
       AND A TOTAL OF          5 INNER ITERATIONS.
    ------------------------------------------------

 NO OUTPUT CONTROL FOR STRESS PERIOD   16   TIME STEP   20
 
 SOLVING FOR HEAD 
                                                   Max.-Head-Change                         Max.-Flux-Residual
  Residual-Control   Outer-Iter.   Inner-Iter.     Column Row Layer    Maximum-Head-Change  Column Row Layer    Maximum-Flux-Residual          L2-NORM 
          0                 1           2             4    7     1       0.8446633861E-02       4    7    1         0.4418798771E+00      0.1449555207E+01
          0                 2           2             4    7     1      -0.8211824614E-03       4    7    1        -0.4416398217E-01      0.1423744864E+00
          0                 3           1             4    7     1       0.5587730307E-04       4    7    1         0.3089137874E-02      0.9946660308E-02

    ------------------------------------------------
       NWT REQUIRED            3 OUTER ITERATIONS 
       AND A TOTAL OF          5 INNER ITERATIONS.
    ------------------------------------------------

 NO OUTPUT CONTROL FOR STRESS PERIOD   16   TIME STEP   21
 
 SOLVING FOR HEAD 
                                                   Max.-Head-Change                         Max.-Flux-Residual
  Residual-Control   Outer-Iter.   Inner-Iter.     Column Row Layer    Maximum-Head-Change  Column Row Layer    Maximum-Flux-Residual          L2-NORM 
          0                 1           2             4    7     1       0.8389593473E-02       4    7    1         0.4388795173E+00      0.1429906844E+01
          0                 2           2             4    7     1      -0.8156369662E-03       4    7    1        -0.4386410746E-01      0.1408218409E+00
          0                 3           1             4    7     1       0.5549995938E-04       4    7    1         0.3068162480E-02      0.9839911587E-02

    ------------------------------------------------
       NWT REQUIRED            3 OUTER ITERATIONS 
       AND A TOTAL OF          5 INNER ITERATIONS.
    ------------------------------------------------

 NO OUTPUT CONTROL FOR STRESS PERIOD   16   TIME STEP   22
 
 SOLVING FOR HEAD 
                                                   Max.-Head-Change                         Max.-Flux-Residual
  Residual-Control   Outer-Iter.   Inner-Iter.     Column Row Layer    Maximum-Head-Change  Column Row Layer    Maximum-Flux-Residual          L2-NORM 
          0                 1           2             4    7     1       0.8333219252E-02       4    7    1         0.4359146729E+00      0.1411919989E+01
          0                 2           2             4    7     1      -0.8101562368E-03       4    7    1        -0.4356778247E-01      0.1393679445E+00
          0                 3           1             4    7     1       0.5512702253E-04       4    7    1         0.3047435348E-02      0.9735988993E-02

    ------------------------------------------------
       NWT REQUIRED            3 OUTER ITERATIONS 
       AND A TOTAL OF          5 INNER ITERATIONS.
    ------------------------------------------------

 NO OUTPUT CONTROL FOR STRESS PERIOD   16   TIME STEP   23
 
 SOLVING FOR HEAD 
                                                   Max.-Head-Change                         Max.-Flux-Residual
  Residual-Control   Outer-Iter.   Inner-Iter.     Column Row Layer    Maximum-Head-Change  Column Row Layer    Maximum-Flux-Residual          L2-NORM 
          0                 1           2             4    7     1       0.8277492425E-02       4    7    1         0.4329843683E+00      0.1395370007E+01
          0                 2           2             4    7     1      -0.8047384483E-03       4    7    1        -0.4327490964E-01      0.1380531059E+00
          0                 3           1             4    7     1       0.5475836853E-04       4    7    1         0.3026949701E-02      0.9649193085E-02

    ------------------------------------------------
       NWT REQUIRED            3 OUTER ITERATIONS 
       AND A TOTAL OF          5 INNER ITERATIONS.
    ------------------------------------------------

 NO OUTPUT CONTROL FOR STRESS PERIOD   16   TIME STEP   24
 
 SOLVING FOR HEAD 
                                                   Max.-Head-Change                         Max.-Flux-Residual
  Residual-Control   Outer-Iter.   Inner-Iter.     Column Row Layer    Maximum-Head-Change  Column Row Layer    Maximum-Flux-Residual          L2-NORM 
          0                 1           2             4    7     1       0.8222535819E-02       4    7    1         0.4300950027E+00      0.1380035351E+01
          0                 2           2             4    7     1      -0.7993955415E-03       4    7    1        -0.4298612855E-01      0.1366991985E+00
          0                 3           1             4    7     1       0.5439481010E-04       4    7    1         0.3006750254E-02      0.9564064400E-02

    ------------------------------------------------
       NWT REQUIRED            3 OUTER ITERATIONS 
       AND A TOTAL OF          5 INNER ITERATIONS.
    ------------------------------------------------

 NO OUTPUT CONTROL FOR STRESS PERIOD   16   TIME STEP   25
 
 SOLVING FOR HEAD 
                                                   Max.-Head-Change                         Max.-Flux-Residual
  Residual-Control   Outer-Iter.   Inner-Iter.     Column Row Layer    Maximum-Head-Change  Column Row Layer    Maximum-Flux-Residual          L2-NORM 
          0                 1           2             4    7     1       0.8168058947E-02       4    7    1         0.4272308258E+00      0.1365804112E+01
          0                 2           2             4    7     1      -0.7940992745E-03       4    7    1        -0.4269986496E-01      0.1354766279E+00
          0                 3           1             4    7     1       0.5403442523E-04       4    7    1         0.2986726916E-02      0.9471504685E-02

    ------------------------------------------------
       NWT REQUIRED            3 OUTER ITERATIONS 
       AND A TOTAL OF          5 INNER ITERATIONS.
    ------------------------------------------------

 NO OUTPUT CONTROL FOR STRESS PERIOD   16   TIME STEP   26
 
 SOLVING FOR HEAD 
                                                   Max.-Head-Change                         Max.-Flux-Residual
  Residual-Control   Outer-Iter.   Inner-Iter.     Column Row Layer    Maximum-Head-Change  Column Row Layer    Maximum-Flux-Residual          L2-NORM 
          0                 1           2             4    7     1       0.8114322422E-02       4    7    1         0.4244062687E+00      0.1352531431E+01
          0                 2           2             4    7     1      -0.7888749852E-03       4    7    1        -0.4241756128E-01      0.1343150302E+00
          0                 3           1             4    7     1       0.5367893807E-04       4    7    1         0.2966980554E-02      0.9391099110E-02

    ------------------------------------------------
       NWT REQUIRED            3 OUTER ITERATIONS 
       AND A TOTAL OF          5 INNER ITERATIONS.
    ------------------------------------------------

 NO OUTPUT CONTROL FOR STRESS PERIOD   16   TIME STEP   27
 
 SOLVING FOR HEAD 
                                                   Max.-Head-Change                         Max.-Flux-Residual
  Residual-Control   Outer-Iter.   Inner-Iter.     Column Row Layer    Maximum-Head-Change  Column Row Layer    Maximum-Flux-Residual          L2-NORM 
          0                 1           2             4    7     1       0.8061168462E-02       4    7    1         0.4216127240E+00      0.1340112922E+01
          0                 2           2             4    7     1      -0.7837073345E-03       4    7    1        -0.4213835726E-01      0.1332117301E+00
          0                 3           2             3   13     1       0.1565484387E-03       3   13    1         0.9610339230E-02      0.1335596722E-01
          0                 4           2             3   13     1      -0.1449356323E-03       3   13    1        -0.9157928109E-02      0.9167962749E-02
          0                 5           1             3   13     1      -0.1089301013E-04       3   13    1        -0.6879290668E-03      0.6884304868E-03

    ------------------------------------------------
       NWT REQUIRED            5 OUTER ITERATIONS 
       AND A TOTAL OF          9 INNER ITERATIONS.
    ------------------------------------------------

 NO OUTPUT CONTROL FOR STRESS PERIOD   16   TIME STEP   28
 
 SOLVING FOR HEAD 
                                                   Max.-Head-Change                         Max.-Flux-Residual
  Residual-Control   Outer-Iter.   Inner-Iter.     Column Row Layer    Maximum-Head-Change  Column Row Layer    Maximum-Flux-Residual          L2-NORM 
          0                 1           2             4    7     1       0.8008605248E-02       4    7    1         0.4188504246E+00      0.1328447996E+01
          0                 2           2             4    7     1      -0.7785971159E-03       4    7    1        -0.4186227603E-01      0.1321616068E+00
          0                 3           1             4    7     1       0.5297958003E-04       4    7    1         0.2928139919E-02      0.9242335140E-02

    ------------------------------------------------
       NWT REQUIRED            3 OUTER ITERATIONS 
       AND A TOTAL OF          5 INNER ITERATIONS.
    ------------------------------------------------

 NO OUTPUT CONTROL FOR STRESS PERIOD   16   TIME STEP   29
 
 SOLVING FOR HEAD 
                                                   Max.-Head-Change                         Max.-Flux-Residual
  Residual-Control   Outer-Iter.   Inner-Iter.     Column Row Layer    Maximum-Head-Change  Column Row Layer    Maximum-Flux-Residual          L2-NORM 
          0                 1           2             4    7     1       0.7956537413E-02       4    7    1         0.4161166737E+00      0.1279486943E+01
          0                 2           2             4    7     1      -0.7735350617E-03       4    7    1        -0.4158904835E-01      0.1267703268E+00
          0                 3           1             4    7     1       0.5263513249E-04       4    7    1         0.2909028398E-02      0.8870327335E-02

    ------------------------------------------------
       NWT REQUIRED            3 OUTER ITERATIONS 
       AND A TOTAL OF          5 INNER ITERATIONS.
    ------------------------------------------------

 NO OUTPUT CONTROL FOR STRESS PERIOD   16   TIME STEP   30



 STREAM LISTING     PERIOD     16   STEP       30

 LAYER ROW COL. STREAM  RCH.  FLOW INTO     FLOW TO   FLOW OUT OF   OVRLND.     DIRECT     STREAM       STREAM     STREAM     STREAM   STREAMBED  STREAMBED
                SEG.NO.  NO.  STRM. RCH.    AQUIFER    STRM. RCH.    RUNOFF     PRECIP       ET          HEAD       DEPTH      WIDTH   CONDCTNC.   GRADIENT

   1    1    1     1     1    8.8455E+01  4.5169E-01   8.8003E+01  0.000E+00  0.000E+00  0.000E+00  1.09480E+03  1.756E+00  2.111E+01  9.498E-02  1.585E+00
   1    2    2     1     2    8.8003E+01  7.0076E-01   8.7302E+01  0.000E+00  0.000E+00  0.000E+00  1.08981E+03  1.753E+00  2.106E+01  1.474E-01  1.584E+00
   1    3    3     1     3    8.7302E+01  5.9885E-01   8.6704E+01  0.000E+00  0.000E+00  0.000E+00  1.08417E+03  1.751E+00  2.101E+01  1.260E-01  1.584E+00
   1    3    4     1     4    8.6704E+01  5.5245E-01   8.6151E+01  0.000E+00  0.000E+00  0.000E+00  1.07916E+03  1.749E+00  2.096E+01  1.163E-01  1.583E+00
   1    4    5     2     1    8.4151E+01  4.2881E-01   8.3722E+01  0.000E+00  0.000E+00  0.000E+00  1.07443E+03  2.498E+00  1.200E+01  7.800E-02  1.833E+00
   1    5    6     2     2    8.3722E+01  3.2945E-01   8.3393E+01  0.000E+00  0.000E+00  0.000E+00  1.06900E+03  2.491E+00  1.200E+01  6.000E-02  1.830E+00
   1    6    6     2     3    8.3393E+01  3.2909E-01   8.3064E+01  0.000E+00  0.000E+00  0.000E+00  1.06428E+03  2.485E+00  1.200E+01  6.000E-02  1.828E+00
   1    7    6     2     4    8.3064E+01  3.2874E-01   8.2735E+01  0.000E+00  0.000E+00  0.000E+00  1.05955E+03  2.479E+00  1.200E+01  6.000E-02  1.826E+00
   1    8    6     2     5    8.2735E+01  3.2839E-01   8.2407E+01  0.000E+00  0.000E+00  0.000E+00  1.05483E+03  2.473E+00  1.200E+01  6.000E-02  1.824E+00
   1    3    5     3     1    2.0000E+00  2.8252E-01   1.7175E+00  0.000E+00  0.000E+00  0.000E+00  1.07555E+03  1.909E+00  9.636E+00  7.227E-02  1.955E+00
   1    3    6     3     2    1.7175E+00  2.4905E-01   1.4684E+00  0.000E+00  0.000E+00  0.000E+00  1.07264E+03  1.727E+00  8.909E+00  6.682E-02  1.864E+00
   1    3    7     3     3    1.4684E+00  1.9718E-01   1.2712E+00  0.000E+00  0.000E+00  0.000E+00  1.06987E+03  1.555E+00  8.218E+00  5.547E-02  1.777E+00
   1    4    8     3     4    1.2712E+00  2.2567E-01   1.0456E+00  0.000E+00  0.000E+00  0.000E+00  1.06682E+03  1.364E+00  7.455E+00  6.709E-02  1.682E+00
   1    5    8     3     5    1.0456E+00  1.5790E-01   8.8768E-01  0.000E+00  0.000E+00  0.000E+00  1.06362E+03  1.164E+00  6.655E+00  4.991E-02  1.582E+00
   1    6    8     3     6    8.8768E-01  5.5980E-02   8.3170E-01  0.000E+00  0.000E+00  0.000E+00  1.06158E+03  1.036E+00  6.145E+00  1.844E-02  1.518E+00
   1    5   10     4     1    1.0000E+01  9.0919E-02   9.9091E+00  0.000E+00  0.000E+00  0.000E+00  1.07836E+03  6.368E-01  1.000E+01  2.500E-02  1.212E+00
   1    5    9     4     2    9.9091E+00  1.8158E-01   9.7275E+00  0.000E+00  0.000E+00  0.000E+00  1.07154E+03  6.315E-01  1.000E+01  5.000E-02  1.211E+00
   1    6    8     4     3    9.7275E+00  1.2689E-01   9.6006E+00  0.000E+00  0.000E+00  0.000E+00  1.06381E+03  6.256E-01  1.000E+01  3.500E-02  1.209E+00
   1    6    8     5     1    1.0432E+01  2.2686E-01   1.0205E+01  0.000E+00  0.000E+00  0.000E+00  1.05868E+03  6.790E-01  1.542E+01  6.166E-02  1.226E+00
   1    7    7     5     2    1.0205E+01  2.7894E-01   9.9265E+00  0.000E+00  0.000E+00  0.000E+00  1.05417E+03  6.732E-01  1.519E+01  7.594E-02  1.224E+00
   1    8    7     5     3    9.9265E+00  1.9221E-01   9.7343E+00  0.000E+00  0.000E+00  0.000E+00  1.04992E+03  6.676E-01  1.497E+01  5.241E-02  1.223E+00
   1    8    6     5     4    9.7343E+00  1.3577E-01   9.5985E+00  0.000E+00  0.000E+00  0.000E+00  1.04691E+03  6.637E-01  1.482E+01  3.706E-02  1.221E+00
   1    9    6     6     1    9.2005E+01  3.3993E-01   9.1665E+01  0.000E+00  0.000E+00  0.000E+00  1.04539E+03  2.665E+00  1.200E+01  6.000E-02  1.888E+00
   1   10    7     6     2    9.1665E+01  3.3957E-01   9.1326E+01  0.000E+00  0.000E+00  0.000E+00  1.04084E+03  2.660E+00  1.200E+01  6.000E-02  1.887E+00
   1   11    7     6     3    9.1326E+01  3.3922E-01   9.0986E+01  0.000E+00  0.000E+00  0.000E+00  1.03629E+03  2.654E+00  1.200E+01  6.000E-02  1.885E+00
   1   12    7     6     4    9.0986E+01  3.3886E-01   9.0648E+01  0.000E+00  0.000E+00  0.000E+00  1.03174E+03  2.648E+00  1.200E+01  6.000E-02  1.883E+00
   1   13    7     6     5    9.0648E+01  3.4576E-02   9.0613E+01  0.000E+00  0.000E+00  0.000E+00  1.02855E+03  2.644E+00  1.200E+01  2.400E-02  4.802E-01
   1   14    9     7     1    1.5000E+02  1.3300E+00   1.4867E+02  0.000E+00  0.000E+00  0.000E+00  1.03987E+03  2.288E+00  5.529E+01  5.593E-01  7.926E-01
   1   13    8     7     2    1.4867E+02  1.8186E+00   1.4685E+02  0.000E+00  0.000E+00  0.000E+00  1.03478E+03  2.279E+00  5.526E+01  6.148E-01  9.861E-01
   1   13    7     7     3    1.4685E+02  1.4392E+00   1.4541E+02  0.000E+00  0.000E+00  0.000E+00  1.02969E+03  2.271E+00  5.522E+01  5.585E-01  8.590E-01
   1   13    6     8     1    2.3603E+02  1.1641E+00   2.3486E+02  0.000E+00  0.000E+00  0.000E+00  1.02521E+03  3.336E+00  4.837E+01  4.929E-01  7.873E-01
   1   13    5     8     2    2.3486E+02  3.2251E-01   2.3454E+02  0.000E+00  0.000E+00  0.000E+00  1.01896E+03  3.332E+00  4.831E+01  4.923E-01  2.184E-01
   1   13    4     8     3    2.3454E+02 -2.2563E+00   2.3679E+02  0.000E+00  0.000E+00  0.000E+00  1.01271E+03  3.337E+00  4.838E+01  4.931E+00 -1.525E-01
   1   13    3     8     4    2.3679E+02 -3.6319E+00   2.4043E+02  0.000E+00  0.000E+00  0.000E+00  1.00648E+03  3.352E+00  4.861E+01  4.954E+00 -2.444E-01
   1   13    2     8     5    2.4043E+02 -2.5628E+00   2.4299E+02  0.000E+00  0.000E+00  0.000E+00  1.00024E+03  3.369E+00  4.885E+01  4.978E+00 -1.716E-01
   1   13    1     8     6    2.4299E+02 -1.8862E+00   2.4488E+02  0.000E+00  0.000E+00  0.000E+00  9.95255E+02  3.380E+00  4.901E+01  2.997E+00 -2.098E-01





UNSATURATED ZONE PACKAGE VOLUMETRIC BUDGET FOR  TIME STEP    30 STRESS PERIOD   16
  ------------------------------------------------------------------------------



     CUMULATIVE VOLUMES      L**3       RATES FOR THIS TIME STEP      L**3/T
     ------------------                 ------------------------

           IN:                                      IN:
           ---                                      ---
        INFILTRATION =   644433312.0217          INFILTRATION =           4.4075

          OUT:                                     OUT:
          ----                                     ----
              UZF ET =   504876998.3214                UZF ET =           0.7253
        UZF RECHARGE =    73803149.9961          UZF RECHARGE =           0.0609

            IN - OUT =    65753163.7042              IN - OUT =           3.6212

          STORAGE:                                 STORAGE:
          --------                                 --------
      STORAGE CHANGE =    65754668.3226        STORAGE CHANGE =           3.6212

 PERCENT DISCREPANCY IS DIFFERENCE BETWEEN IN-OUT MINUS CHANGE IN STORAGE
 DIVIDED BY THE AVERAGE OF IN AND OUT TIMES 100

 PERCENT DISCREPANCY =          -0.00     PERCENT DISCREPANCY =           0.00






1
  VOLUMETRIC BUDGET FOR AGRICULTURAL FIELDS AT TIME STEP   30, STRESS PERIOD  16
  ------------------------------------------------------------------------------

     CUMULATIVE VOLUMES      L**3       RATES FOR THIS TIME STEP      L**3/T
     ------------------                 ------------------------

           IN:                                      IN:
           ---                                      ---
               AG WELLS  =   470484032.0000                 AG WELLS  =           0.0000
      DIVERSION SEGMENTS =           0.0000        DIVERSION SEGMENTS =           0.0000
           GW IRRIGATION =           0.0000             GW IRRIGATION =           0.0000
           SW IRRIGATION =           0.0000             SW IRRIGATION =           0.0000
        SYSTEM LOSSES GW =           0.0000          SYSTEM LOSSES GW =           0.0000
        SYSTEM LOSSES SW =           0.0000          SYSTEM LOSSES SW =           0.0000

                TOTAL IN =   470484032.0000                  TOTAL IN =           0.0000

          OUT:                                     OUT:
          ----                                     ----
               AG WELLS  =           0.0000                 AG WELLS  =           0.0000
      DIVERSION SEGMENTS =           0.0000        DIVERSION SEGMENTS =           0.0000
           GW IRRIGATION =   470484032.0000             GW IRRIGATION =           0.0000
           SW IRRIGATION =           0.0000             SW IRRIGATION =           0.0000
        SYSTEM LOSSES GW =           0.0000          SYSTEM LOSSES GW =           0.0000
        SYSTEM LOSSES SW =           0.0000          SYSTEM LOSSES SW =           0.0000

               TOTAL OUT =   470484032.0000                 TOTAL OUT =           0.0000

                IN - OUT =           0.0000                  IN - OUT =           0.0000

     PERCENT DISCREPANCY =           0.00         PERCENT DISCREPANCY =           0.00



1
  VOLUMETRIC BUDGET FOR ENTIRE MODEL AT END OF TIME STEP   30, STRESS PERIOD  16
  ------------------------------------------------------------------------------

     CUMULATIVE VOLUMES      L**3       RATES FOR THIS TIME STEP      L**3/T
     ------------------                 ------------------------

           IN:                                      IN:
           ---                                      ---
             STORAGE     =   626209984.0000               STORAGE     =           2.7349
       CONSTANT HEAD     =           0.0000         CONSTANT HEAD     =           0.0000
     HEAD DEP BOUNDS     =    11284208.0000       HEAD DEP BOUNDS     =           0.2854
      STREAM LEAKAGE     =   491998976.0000        STREAM LEAKAGE     =          13.9163
        UZF RECHARGE     =    73803152.0000          UZF RECHARGE     =       6.0942E-02
               GW ET     =           0.0000                 GW ET     =           0.0000
     SURFACE LEAKAGE     =           0.0000       SURFACE LEAKAGE     =           0.0000
           AG WELLS      =           0.0000             AG WELLS      =           0.0000

                TOTAL IN =  1203296384.0000                  TOTAL IN =          16.9974

          OUT:                                     OUT:
          ----                                     ----
             STORAGE     =   299787232.0000               STORAGE     =           6.3618
       CONSTANT HEAD     =           0.0000         CONSTANT HEAD     =           0.0000
     HEAD DEP BOUNDS     =    11630074.0000       HEAD DEP BOUNDS     =           0.2996
      STREAM LEAKAGE     =   407799424.0000        STREAM LEAKAGE     =          10.3372
        UZF RECHARGE     =           0.0000          UZF RECHARGE     =           0.0000
               GW ET     =    13595227.0000                 GW ET     =           0.0000
     SURFACE LEAKAGE     =           0.0000       SURFACE LEAKAGE     =           0.0000
           AG WELLS      =   470484032.0000             AG WELLS      =           0.0000

               TOTAL OUT =  1203296000.0000                 TOTAL OUT =          16.9986

                IN - OUT =         384.0000                  IN - OUT =      -1.1044E-03

     PERCENT DISCREPANCY =           0.00         PERCENT DISCREPANCY =          -0.01






         TIME SUMMARY AT END OF TIME STEP   30 IN STRESS PERIOD   16
                    SECONDS     MINUTES      HOURS       DAYS        YEARS
                    -----------------------------------------------------------
   TIME STEP LENGTH  87667.      1461.1      24.352      1.0147     2.77799E-03
 STRESS PERIOD TIME 2.63000E+06  43833.      730.56      30.440     8.33397E-02
         TOTAL TIME 3.95364E+07 6.58940E+05  10982.      457.60      1.2528    
1
1
                            STRESS PERIOD NO.   17, LENGTH =   2630000.    
                            -----------------------------------------------

                              NUMBER OF TIME STEPS =    30

                               MULTIPLIER FOR DELT =     1.000

                            INITIAL TIME STEP SIZE =   87666.66    

 REUSING NON-PARAMETER GHB CELLS FROM LAST STRESS PERIOD

      2 GHB CELLS

 REUSING STREAM SEGMENT DATA FROM LAST STRESS PERIOD



            AREAL INFILTRATION RATE
 READING ON UNIT   19 WITH FORMAT: (10F4.0)            

            1           2           3           4           5           6           7           8           9          10
 ........................................................................................................................
   1   1.2000E-09   0.000       0.000       0.000       0.000       0.000       0.000       0.000       0.000       0.000    
   2   2.1000E-09  2.0000E-09  8.0000E-10  8.5000E-09   0.000       0.000       0.000       0.000       0.000       0.000    
   3   5.0000E-10  1.1000E-09  8.8000E-09  5.5000E-09   0.000       0.000       0.000       0.000       0.000       0.000    
   4   8.5000E-09  1.1000E-09  1.1000E-09  1.1000E-09  2.0000E-09   0.000       0.000       0.000       0.000       0.000    
   5   8.5000E-09  1.1000E-09  1.1000E-09  1.1000E-09  1.1000E-09   0.000       0.000       0.000       0.000       0.000    
   6   8.5000E-09  5.2000E-09  2.1000E-09  1.1000E-09  1.5000E-09   0.000       0.000       0.000       0.000       0.000    
   7   8.5000E-09  5.2000E-09  2.1000E-09  1.2000E-09  2.0000E-09   0.000       0.000       0.000       0.000       0.000    
   8   5.0000E-10  5.2000E-09  2.1000E-09  1.2000E-09  5.0000E-09   0.000       0.000       0.000       0.000       0.000    
   9   5.0000E-10  5.2000E-09  2.1000E-09  1.2000E-09  5.0000E-09   0.000       0.000       0.000       0.000       0.000    
  10   5.0000E-10  5.2000E-09  2.1000E-09  1.2000E-09  5.8000E-09   0.000       0.000       0.000       0.000       0.000    
  11   1.0000E-10  1.1000E-09  1.1000E-09  1.2000E-09  5.0000E-09   0.000       0.000       0.000       0.000       0.000    
  12   1.1000E-09  1.1000E-09  1.1000E-09  1.1000E-09  2.0000E-09   0.000       0.000       0.000       0.000       0.000    
  13   1.1000E-09  2.2000E-09  2.2000E-09  2.1000E-09  1.0000E-09   0.000       0.000       0.000       0.000       0.000    
  14   2.0000E-10  5.5000E-09  5.5000E-09  5.2000E-09  1.0000E-09   0.000       0.000       0.000       0.000       0.000    
  15    0.000      8.8000E-09  8.8000E-09   0.000       0.000       0.000       0.000       0.000       0.000       0.000    

                  ET RATE =  2.500000E-08

 USING ET EXTINCTION DEPTH FROM PREVIOUS STRESS PERIOD. CURRENT PERIOD IS:      17

 USING EXTINCTION WATER CONTENT FROM PREVIOUS STRESS PERIOD. CURRENT PERIOD IS:      17

 USING AIR ENTRY PRESSURE FROM PREVIOUS STRESS PERIOD. CURRENT PERIOD IS:      17

 USING ROOT PRESSURE HEAD FROM PREVIOUS STRESS PERIOD. CURRENT PERIOD IS:      17

 USING ROOT ACTIVITY FROM PREVIOUS STRESS PERIOD. CURRENT PERIOD IS:      17

 PROCESSING AG STRESS PERIOD DATA

 READING AG STRESS PERIOD DATA

 READING IRRIGATION WELL

 END PROCESSING AG STRESS PERIOD DATA OPTIONS
 
 SOLVING FOR HEAD 
                                                   Max.-Head-Change                         Max.-Flux-Residual
  Residual-Control   Outer-Iter.   Inner-Iter.     Column Row Layer    Maximum-Head-Change  Column Row Layer    Maximum-Flux-Residual          L2-NORM 
          0                 1           2             4    7     1       0.7905024725E-02       4    7    1         0.4134158213E+00      0.1376534219E+01
          0                 2           2             4    7     1      -0.7685486609E-03       4    7    1        -0.4132030840E-01      0.1262806985E+00
          0                 3           1             4    7     1       0.5227474631E-04       4    7    1         0.2889031434E-02      0.8824776344E-02

    ------------------------------------------------
       NWT REQUIRED            3 OUTER ITERATIONS 
       AND A TOTAL OF          5 INNER ITERATIONS.
    ------------------------------------------------

 NO OUTPUT CONTROL FOR STRESS PERIOD   17   TIME STEP    1
 
 SOLVING FOR HEAD 
                                                   Max.-Head-Change                         Max.-Flux-Residual
  Residual-Control   Outer-Iter.   Inner-Iter.     Column Row Layer    Maximum-Head-Change  Column Row Layer    Maximum-Flux-Residual          L2-NORM 
          0                 1           2             4    7     1       0.7831999108E-02       4    7    1         0.4095896286E+00      0.1359552896E+01
          0                 2           2             4    7     1      -0.7889461992E-03       4    7    1        -0.4241370699E-01      0.1332552366E+00
          0                 3           1             3    7     1       0.4533864274E-04       5    7    1         0.2488666563E-02      0.8269229164E-02

    ------------------------------------------------
       NWT REQUIRED            3 OUTER ITERATIONS 
       AND A TOTAL OF          5 INNER ITERATIONS.
    ------------------------------------------------

 NO OUTPUT CONTROL FOR STRESS PERIOD   17   TIME STEP    2
 
 SOLVING FOR HEAD 
                                                   Max.-Head-Change                         Max.-Flux-Residual
  Residual-Control   Outer-Iter.   Inner-Iter.     Column Row Layer    Maximum-Head-Change  Column Row Layer    Maximum-Flux-Residual          L2-NORM 
          0                 1           2             4    7     1       0.7796932727E-02       4    7    1         0.4077538071E+00      0.1341342924E+01
          0                 2           2             4    7     1      -0.7649056318E-03       4    7    1        -0.4111412717E-01      0.1341531343E+00
          0                 3           1             3    7     1       0.4538553244E-04       4    7    1         0.2497371376E-02      0.8613566088E-02

    ------------------------------------------------
       NWT REQUIRED            3 OUTER ITERATIONS 
       AND A TOTAL OF          5 INNER ITERATIONS.
    ------------------------------------------------

 NO OUTPUT CONTROL FOR STRESS PERIOD   17   TIME STEP    3
 
 SOLVING FOR HEAD 
                                                   Max.-Head-Change                         Max.-Flux-Residual
  Residual-Control   Outer-Iter.   Inner-Iter.     Column Row Layer    Maximum-Head-Change  Column Row Layer    Maximum-Flux-Residual          L2-NORM 
          0                 1           2             3   13     1      -0.8799617949E-02       3   13    1        -0.5135477087E+00      0.1372336279E+01
          0                 2           2             3   13     1       0.8363033896E-03       3   13    1         0.5018112080E-01      0.1409170457E+00
          0                 3           1             4    6     1      -0.5978869040E-04       3   13    1        -0.3400717237E-02      0.9265291688E-02

    ------------------------------------------------
       NWT REQUIRED            3 OUTER ITERATIONS 
       AND A TOTAL OF          5 INNER ITERATIONS.
    ------------------------------------------------

 NO OUTPUT CONTROL FOR STRESS PERIOD   17   TIME STEP    4
 
 SOLVING FOR HEAD 
                                                   Max.-Head-Change                         Max.-Flux-Residual
  Residual-Control   Outer-Iter.   Inner-Iter.     Column Row Layer    Maximum-Head-Change  Column Row Layer    Maximum-Flux-Residual          L2-NORM 
          0                 1           2             3   13     1      -0.7850227366E-02       3   13    1        -0.4577800692E+00      0.1199463347E+01
          0                 2           2             5    6     1      -0.2301414934E-02       5    6    1        -0.1263905300E+00      0.1712264388E+00
          0                 3           2             5    6     1       0.2227816021E-03       5    6    1         0.1266191555E-01      0.1500632722E-01
          0                 4           1             5    7     1      -0.8338960515E-04       5    7    1        -0.4697527432E-02      0.5104712131E-02

    ------------------------------------------------
       NWT REQUIRED            4 OUTER ITERATIONS 
       AND A TOTAL OF          7 INNER ITERATIONS.
    ------------------------------------------------

 NO OUTPUT CONTROL FOR STRESS PERIOD   17   TIME STEP    5
 
 SOLVING FOR HEAD 
                                                   Max.-Head-Change                         Max.-Flux-Residual
  Residual-Control   Outer-Iter.   Inner-Iter.     Column Row Layer    Maximum-Head-Change  Column Row Layer    Maximum-Flux-Residual          L2-NORM 
          0                 1           2             3   13     1      -0.7004699996E-02       3   13    1        -0.4084423551E+00      0.1155928598E+01
          0                 2           2             5    6     1      -0.2237443444E-02       5    6    1        -0.1235458120E+00      0.1665248878E+00
          0                 3           2             5    6     1       0.2176193163E-03       5    6    1         0.1235674994E-01      0.1466997824E-01
          0                 4           1             5    8     1      -0.2267933406E-04       5    8    1        -0.1286716103E-02      0.1578799561E-02

    ------------------------------------------------
       NWT REQUIRED            4 OUTER ITERATIONS 
       AND A TOTAL OF          7 INNER ITERATIONS.
    ------------------------------------------------

 NO OUTPUT CONTROL FOR STRESS PERIOD   17   TIME STEP    6
 
 SOLVING FOR HEAD 
                                                   Max.-Head-Change                         Max.-Flux-Residual
  Residual-Control   Outer-Iter.   Inner-Iter.     Column Row Layer    Maximum-Head-Change  Column Row Layer    Maximum-Flux-Residual          L2-NORM 
          0                 1           2             3    7     1       0.6409033399E-02       3   13    1        -0.3644511513E+00      0.1064563133E+01
          0                 2           2             5    8     1      -0.4589778917E-02       5    8    1        -0.2603509256E+00      0.3053285587E+00
          0                 3           2             5    8     1       0.3124964104E-03       5    8    1         0.1822161374E-01      0.2309708232E-01
          0                 4           1             5    6     1      -0.1480369659E-04       5    6    1        -0.8639369335E-03      0.1175584622E-02

    ------------------------------------------------
       NWT REQUIRED            4 OUTER ITERATIONS 
       AND A TOTAL OF          7 INNER ITERATIONS.
    ------------------------------------------------

 NO OUTPUT CONTROL FOR STRESS PERIOD   17   TIME STEP    7
 
 SOLVING FOR HEAD 
                                                   Max.-Head-Change                         Max.-Flux-Residual
  Residual-Control   Outer-Iter.   Inner-Iter.     Column Row Layer    Maximum-Head-Change  Column Row Layer    Maximum-Flux-Residual          L2-NORM 
          0                 1           2             3    7     1       0.6275075828E-02       3   13    1        -0.3252176955E+00      0.1016589543E+01
          0                 2           2             5    8     1      -0.4414092399E-02       5    8    1        -0.2503839053E+00      0.2960499121E+00
          0                 3           2             5    8     1       0.3005821094E-03       5    8    1         0.1752679886E-01      0.2255080607E-01
          0                 4           1             5    6     1      -0.1500412122E-04       5    6    1        -0.8756399691E-03      0.1163802802E-02

    ------------------------------------------------
       NWT REQUIRED            4 OUTER ITERATIONS 
       AND A TOTAL OF          7 INNER ITERATIONS.
    ------------------------------------------------

 NO OUTPUT CONTROL FOR STRESS PERIOD   17   TIME STEP    8
 
 SOLVING FOR HEAD 
                                                   Max.-Head-Change                         Max.-Flux-Residual
  Residual-Control   Outer-Iter.   Inner-Iter.     Column Row Layer    Maximum-Head-Change  Column Row Layer    Maximum-Flux-Residual          L2-NORM 
          0                 1           2             3    7     1       0.6143296111E-02       3   13    1        -0.2902311700E+00      0.9745587482E+00
          0                 2           2             5    8     1      -0.4363857813E-02       5    8    1        -0.2475360848E+00      0.2928928732E+00
          0                 3           2             5    8     1       0.2971612788E-03       5    8    1         0.1732745321E-01      0.2237850339E-01
          0                 4           1             5    6     1      -0.1513916036E-04       5    6    1        -0.8835207991E-03      0.1162273620E-02

    ------------------------------------------------
       NWT REQUIRED            4 OUTER ITERATIONS 
       AND A TOTAL OF          7 INNER ITERATIONS.
    ------------------------------------------------

 NO OUTPUT CONTROL FOR STRESS PERIOD   17   TIME STEP    9
 
 SOLVING FOR HEAD 
                                                   Max.-Head-Change                         Max.-Flux-Residual
  Residual-Control   Outer-Iter.   Inner-Iter.     Column Row Layer    Maximum-Head-Change  Column Row Layer    Maximum-Flux-Residual          L2-NORM 
          0                 1           2             3    7     1       0.6014180410E-02       3   13    1        -0.2590354338E+00      0.9375874157E+00
          0                 2           2             5    8     1      -0.4340195923E-02       5    8    1        -0.2461959339E+00      0.2911474737E+00
          0                 3           2             5    8     1       0.2955500039E-03       5    8    1         0.1723364344E-01      0.2230234276E-01
          0                 4           1             5    6     1      -0.1527654020E-04       5    6    1        -0.8915356641E-03      0.1163968189E-02

    ------------------------------------------------
       NWT REQUIRED            4 OUTER ITERATIONS 
       AND A TOTAL OF          7 INNER ITERATIONS.
    ------------------------------------------------

 NO OUTPUT CONTROL FOR STRESS PERIOD   17   TIME STEP   10
 
 SOLVING FOR HEAD 
                                                   Max.-Head-Change                         Max.-Flux-Residual
  Residual-Control   Outer-Iter.   Inner-Iter.     Column Row Layer    Maximum-Head-Change  Column Row Layer    Maximum-Flux-Residual          L2-NORM 
          0                 1           2             3    7     1       0.5887227409E-02       1    1    1         0.2348408433E+00      0.9050098155E+00
          0                 2           2             5    8     1      -0.4364219733E-02       5    8    1        -0.2475612304E+00      0.2918263754E+00
          0                 3           2             5    8     1       0.2971859231E-03       5    8    1         0.1732921333E-01      0.2237941669E-01
          0                 4           1             5    6     1      -0.1540610793E-04       5    6    1        -0.8990913202E-03      0.1170375521E-02

    ------------------------------------------------
       NWT REQUIRED            4 OUTER ITERATIONS 
       AND A TOTAL OF          7 INNER ITERATIONS.
    ------------------------------------------------

 NO OUTPUT CONTROL FOR STRESS PERIOD   17   TIME STEP   11
 
 SOLVING FOR HEAD 
                                                   Max.-Head-Change                         Max.-Flux-Residual
  Residual-Control   Outer-Iter.   Inner-Iter.     Column Row Layer    Maximum-Head-Change  Column Row Layer    Maximum-Flux-Residual          L2-NORM 
          0                 1           2             3    7     1       0.5762915402E-02       1    1    1         0.2345911783E+00      0.8760642481E+00
          0                 2           2             5    8     1      -0.4382950912E-02       5    8    1        -0.2486255214E+00      0.2923627405E+00
          0                 3           2             5    8     1       0.2984614365E-03       5    8    1         0.1740371302E-01      0.2244516303E-01
          0                 4           1             5    6     1      -0.1552851298E-04       5    6    1        -0.9062277788E-03      0.1176203974E-02

    ------------------------------------------------
       NWT REQUIRED            4 OUTER ITERATIONS 
       AND A TOTAL OF          7 INNER ITERATIONS.
    ------------------------------------------------

 NO OUTPUT CONTROL FOR STRESS PERIOD   17   TIME STEP   12
 
 SOLVING FOR HEAD 
                                                   Max.-Head-Change                         Max.-Flux-Residual
  Residual-Control   Outer-Iter.   Inner-Iter.     Column Row Layer    Maximum-Head-Change  Column Row Layer    Maximum-Flux-Residual          L2-NORM 
          0                 1           2             3    7     1       0.5640976489E-02       1    1    1         0.2343411431E+00      0.8502465373E+00
          0                 2           2             5    8     1      -0.4399362017E-02       5    8    1        -0.2495574838E+00      0.2928759172E+00
          0                 3           2             5    8     1       0.2995789629E-03       5    8    1         0.1746894978E-01      0.2250766395E-01
          0                 4           1             5    6     1      -0.1564424124E-04       5    6    1        -0.9129735010E-03      0.1181641695E-02

    ------------------------------------------------
       NWT REQUIRED            4 OUTER ITERATIONS 
       AND A TOTAL OF          7 INNER ITERATIONS.
    ------------------------------------------------

 NO OUTPUT CONTROL FOR STRESS PERIOD   17   TIME STEP   13
 
 SOLVING FOR HEAD 
                                                   Max.-Head-Change                         Max.-Flux-Residual
  Residual-Control   Outer-Iter.   Inner-Iter.     Column Row Layer    Maximum-Head-Change  Column Row Layer    Maximum-Flux-Residual          L2-NORM 
          0                 1           2             3    7     1       0.5521393021E-02       1    1    1         0.2340931439E+00      0.8271142834E+00
          0                 2           2             5    8     1      -0.4414490003E-02       5    8    1        -0.2504161139E+00      0.2933961677E+00
          0                 3           2             5    8     1       0.3005805043E-03       5    8    1         0.1752738439E-01      0.2256745588E-01
          0                 4           1             5    6     1      -0.1575335259E-04       5    6    1        -0.9193319868E-03      0.1186815354E-02

    ------------------------------------------------
       NWT REQUIRED            4 OUTER ITERATIONS 
       AND A TOTAL OF          7 INNER ITERATIONS.
    ------------------------------------------------

 NO OUTPUT CONTROL FOR STRESS PERIOD   17   TIME STEP   14
 
 SOLVING FOR HEAD 
                                                   Max.-Head-Change                         Max.-Flux-Residual
  Residual-Control   Outer-Iter.   Inner-Iter.     Column Row Layer    Maximum-Head-Change  Column Row Layer    Maximum-Flux-Residual          L2-NORM 
          0                 1           2             3    7     1       0.5404138300E-02       1    1    1         0.2338447665E+00      0.8063080118E+00
          0                 2           2             5    8     1      -0.4428480662E-02       5    8    1        -0.2512096413E+00      0.2939171534E+00
          0                 3           2             5    8     1       0.3015332081E-03       5    8    1         0.1758293078E-01      0.2262695287E-01
          0                 4           1             5    6     1      -0.1585667562E-04       5    6    1        -0.9253517428E-03      0.1191917988E-02

    ------------------------------------------------
       NWT REQUIRED            4 OUTER ITERATIONS 
       AND A TOTAL OF          7 INNER ITERATIONS.
    ------------------------------------------------

 NO OUTPUT CONTROL FOR STRESS PERIOD   17   TIME STEP   15
 
 SOLVING FOR HEAD 
                                                   Max.-Head-Change                         Max.-Flux-Residual
  Residual-Control   Outer-Iter.   Inner-Iter.     Column Row Layer    Maximum-Head-Change  Column Row Layer    Maximum-Flux-Residual          L2-NORM 
          0                 1           2             3    7     1       0.5289191621E-02       1    1    1         0.2335984162E+00      0.7875037921E+00
          0                 2           2             5    8     1      -0.4441660970E-02       5    8    1        -0.2519567525E+00      0.2944430932E+00
          0                 3           2             5    8     1       0.3024317525E-03       5    8    1         0.1763528769E-01      0.2268561030E-01
          0                 4           1             5    6     1      -0.1595439730E-04       5    6    1        -0.9310438647E-03      0.1196659047E-02

    ------------------------------------------------
       NWT REQUIRED            4 OUTER ITERATIONS 
       AND A TOTAL OF          7 INNER ITERATIONS.
    ------------------------------------------------

 NO OUTPUT CONTROL FOR STRESS PERIOD   17   TIME STEP   16
 
 SOLVING FOR HEAD 
                                                   Max.-Head-Change                         Max.-Flux-Residual
  Residual-Control   Outer-Iter.   Inner-Iter.     Column Row Layer    Maximum-Head-Change  Column Row Layer    Maximum-Flux-Residual          L2-NORM 
          0                 1           2             3    7     1       0.5176764752E-02       1    1    1         0.2333516785E+00      0.7704456074E+00
          0                 2           2             5    8     1      -0.4454086606E-02       5    8    1        -0.2526606790E+00      0.2949672211E+00
          0                 3           2             5    8     1       0.3032778859E-03       5    8    1         0.1768456210E-01      0.2274238128E-01
          0                 4           1             5    6     1      -0.1604687644E-04       5    6    1        -0.9364295447E-03      0.1201238174E-02

    ------------------------------------------------
       NWT REQUIRED            4 OUTER ITERATIONS 
       AND A TOTAL OF          7 INNER ITERATIONS.
    ------------------------------------------------

 NO OUTPUT CONTROL FOR STRESS PERIOD   17   TIME STEP   17
 
 SOLVING FOR HEAD 
                                                   Max.-Head-Change                         Max.-Flux-Residual
  Residual-Control   Outer-Iter.   Inner-Iter.     Column Row Layer    Maximum-Head-Change  Column Row Layer    Maximum-Flux-Residual          L2-NORM 
          0                 1           2             3    7     1       0.5066581933E-02       1    1    1         0.2331069592E+00      0.7549072416E+00
          0                 2           2             5    8     1      -0.4465810238E-02       5    8    1        -0.2533244101E+00      0.2954860153E+00
          0                 3           2             5    8     1       0.3040772365E-03       5    8    1         0.1773108244E-01      0.2279769601E-01
          0                 4           1             5    6     1      -0.1613465784E-04       5    6    1        -0.9415404029E-03      0.1205664621E-02

    ------------------------------------------------
       NWT REQUIRED            4 OUTER ITERATIONS 
       AND A TOTAL OF          7 INNER ITERATIONS.
    ------------------------------------------------

 NO OUTPUT CONTROL FOR STRESS PERIOD   17   TIME STEP   18
 
 SOLVING FOR HEAD 
                                                   Max.-Head-Change                         Max.-Flux-Residual
  Residual-Control   Outer-Iter.   Inner-Iter.     Column Row Layer    Maximum-Head-Change  Column Row Layer    Maximum-Flux-Residual          L2-NORM 
          0                 1           2             3    7     1       0.4958853477E-02       1    1    1         0.2328618433E+00      0.7406887494E+00
          0                 2           2             5    8     1      -0.4476881644E-02       5    8    1        -0.2539506053E+00      0.2959931778E+00
          0                 3           2             5    8     1       0.3048301300E-03       5    8    1         0.1777485608E-01      0.2285089700E-01
          0                 4           1             5    6     1      -0.1621767833E-04       5    6    1        -0.9463723020E-03      0.1209803012E-02

    ------------------------------------------------
       NWT REQUIRED            4 OUTER ITERATIONS 
       AND A TOTAL OF          7 INNER ITERATIONS.
    ------------------------------------------------

 NO OUTPUT CONTROL FOR STRESS PERIOD   17   TIME STEP   19
 
 SOLVING FOR HEAD 
                                                   Max.-Head-Change                         Max.-Flux-Residual
  Residual-Control   Outer-Iter.   Inner-Iter.     Column Row Layer    Maximum-Head-Change  Column Row Layer    Maximum-Flux-Residual          L2-NORM 
          0                 1           2             3    7     1       0.4853299642E-02       1    1    1         0.2326187383E+00      0.7276220034E+00
          0                 2           2             5    8     1      -0.4487337877E-02       5    8    1        -0.2545418578E+00      0.2964886737E+00
          0                 3           2             5    8     1       0.3055411328E-03       5    8    1         0.1781618376E-01      0.2074350919E-01
          0                 4           1             5    8     1      -0.1215777312E-04       5    8    1        -0.7286833168E-03      0.8483383480E-03

    ------------------------------------------------
       NWT REQUIRED            4 OUTER ITERATIONS 
       AND A TOTAL OF          7 INNER ITERATIONS.
    ------------------------------------------------

 NO OUTPUT CONTROL FOR STRESS PERIOD   17   TIME STEP   20
 
 SOLVING FOR HEAD 
                                                   Max.-Head-Change                         Max.-Flux-Residual
  Residual-Control   Outer-Iter.   Inner-Iter.     Column Row Layer    Maximum-Head-Change  Column Row Layer    Maximum-Flux-Residual          L2-NORM 
          0                 1           2             3    7     1       0.4749886374E-02       1    1    1         0.2323752276E+00      0.7155879667E+00
          0                 2           2             5    8     1      -0.4497211915E-02       5    8    1        -0.2550998641E+00      0.2969700640E+00
          0                 3           2             5    8     1       0.3062135125E-03       5    8    1         0.1785509207E-01      0.2077720078E-01
          0                 4           1             5    8     1      -0.1218452797E-04       5    8    1        -0.7302599759E-03      0.8497186937E-03

    ------------------------------------------------
       NWT REQUIRED            4 OUTER ITERATIONS 
       AND A TOTAL OF          7 INNER ITERATIONS.
    ------------------------------------------------

 NO OUTPUT CONTROL FOR STRESS PERIOD   17   TIME STEP   21
 
 SOLVING FOR HEAD 
                                                   Max.-Head-Change                         Max.-Flux-Residual
  Residual-Control   Outer-Iter.   Inner-Iter.     Column Row Layer    Maximum-Head-Change  Column Row Layer    Maximum-Flux-Residual          L2-NORM 
          0                 1           2             3    7     1       0.4648820987E-02       1    1    1         0.2321337185E+00      0.7044449624E+00
          0                 2           2             5    8     1      -0.4506554886E-02       5    8    1        -0.2556275704E+00      0.2974361895E+00
          0                 3           2             5    8     1       0.3068497287E-03       5    8    1         0.1789182906E-01      0.2080979273E-01
          0                 4           1             5    8     1      -0.1220984338E-04       5    8    1        -0.7317429154E-03      0.8510594982E-03

    ------------------------------------------------
       NWT REQUIRED            4 OUTER ITERATIONS 
       AND A TOTAL OF          7 INNER ITERATIONS.
    ------------------------------------------------

 NO OUTPUT CONTROL FOR STRESS PERIOD   17   TIME STEP   22
 
 SOLVING FOR HEAD 
                                                   Max.-Head-Change                         Max.-Flux-Residual
  Residual-Control   Outer-Iter.   Inner-Iter.     Column Row Layer    Maximum-Head-Change  Column Row Layer    Maximum-Flux-Residual          L2-NORM 
          0                 1           2             3    7     1       0.4549819008E-02       1    1    1         0.2318917948E+00      0.6941027354E+00
          0                 2           2             5    8     1      -0.4515387728E-02       5    8    1        -0.2561261503E+00      0.2978796658E+00
          0                 3           2             5    8     1       0.3074512079E-03       5    8    1         0.1792653391E-01      0.2084079868E-01
          0                 4           1             5    8     1      -0.1223377726E-04       5    8    1        -0.7331434072E-03      0.8522947241E-03

    ------------------------------------------------
       NWT REQUIRED            4 OUTER ITERATIONS 
       AND A TOTAL OF          7 INNER ITERATIONS.
    ------------------------------------------------

 NO OUTPUT CONTROL FOR STRESS PERIOD   17   TIME STEP   23
 
 SOLVING FOR HEAD 
                                                   Max.-Head-Change                         Max.-Flux-Residual
  Residual-Control   Outer-Iter.   Inner-Iter.     Column Row Layer    Maximum-Head-Change  Column Row Layer    Maximum-Flux-Residual          L2-NORM 
          0                 1           2             3    7     1       0.4463855133E-02       1    1    1         0.2316506609E+00      0.6845177762E+00
          0                 2           2             5    8     1      -0.4523756306E-02       5    8    1        -0.2565983245E+00      0.2983202434E+00
          0                 3           2             5    8     1       0.3080210721E-03       5    8    1         0.1795939782E-01      0.2087146693E-01
          0                 4           1             5    8     1      -0.1225645221E-04       5    8    1        -0.7344693095E-03      0.8535673937E-03

    ------------------------------------------------
       NWT REQUIRED            4 OUTER ITERATIONS 
       AND A TOTAL OF          7 INNER ITERATIONS.
    ------------------------------------------------

 NO OUTPUT CONTROL FOR STRESS PERIOD   17   TIME STEP   24
 
 SOLVING FOR HEAD 
                                                   Max.-Head-Change                         Max.-Flux-Residual
  Residual-Control   Outer-Iter.   Inner-Iter.     Column Row Layer    Maximum-Head-Change  Column Row Layer    Maximum-Flux-Residual          L2-NORM 
          0                 1           2             1    1     1       0.4457745300E-02       1    1    1         0.2314103104E+00      0.6756113004E+00
          0                 2           2             5    8     1      -0.4531679978E-02       5    8    1        -0.2570450993E+00      0.2987383442E+00
          0                 3           2             5    8     1       0.3085616620E-03       5    8    1         0.1799054935E-01      0.2090059968E-01
          0                 4           1             5    8     1      -0.1227796277E-04       5    8    1        -0.7357257446E-03      0.8547495470E-03

    ------------------------------------------------
       NWT REQUIRED            4 OUTER ITERATIONS 
       AND A TOTAL OF          7 INNER ITERATIONS.
    ------------------------------------------------

 NO OUTPUT CONTROL FOR STRESS PERIOD   17   TIME STEP   25
 
 SOLVING FOR HEAD 
                                                   Max.-Head-Change                         Max.-Flux-Residual
  Residual-Control   Outer-Iter.   Inner-Iter.     Column Row Layer    Maximum-Head-Change  Column Row Layer    Maximum-Flux-Residual          L2-NORM 
          0                 1           2             1    1     1       0.4453162915E-02       1    1    1         0.2311719466E+00      0.6672782271E+00
          0                 2           2             5    8     1      -0.4539184708E-02       5    8    1        -0.2574680384E+00      0.2991401102E+00
          0                 3           2             5    8     1       0.3090727019E-03       5    8    1         0.1801997899E-01      0.2092859675E-01
          0                 4           1             5    8     1      -0.1229829787E-04       5    8    1        -0.7369123628E-03      0.8558743732E-03

    ------------------------------------------------
       NWT REQUIRED            4 OUTER ITERATIONS 
       AND A TOTAL OF          7 INNER ITERATIONS.
    ------------------------------------------------

 NO OUTPUT CONTROL FOR STRESS PERIOD   17   TIME STEP   26
 
 SOLVING FOR HEAD 
                                                   Max.-Head-Change                         Max.-Flux-Residual
  Residual-Control   Outer-Iter.   Inner-Iter.     Column Row Layer    Maximum-Head-Change  Column Row Layer    Maximum-Flux-Residual          L2-NORM 
          0                 1           2             1    1     1       0.4448572161E-02       1    1    1         0.2309331517E+00      0.6594516673E+00
          0                 2           2             5    8     1      -0.4546296955E-02       5    8    1        -0.2578686473E+00      0.2995246520E+00
          0                 3           2             5    8     1       0.3095559937E-03       5    8    1         0.1804779187E-01      0.2095540047E-01
          0                 4           1             5    8     1      -0.1231752833E-04       5    8    1        -0.7380334323E-03      0.8569892320E-03

    ------------------------------------------------
       NWT REQUIRED            4 OUTER ITERATIONS 
       AND A TOTAL OF          7 INNER ITERATIONS.
    ------------------------------------------------

 NO OUTPUT CONTROL FOR STRESS PERIOD   17   TIME STEP   27
 
 SOLVING FOR HEAD 
                                                   Max.-Head-Change                         Max.-Flux-Residual
  Residual-Control   Outer-Iter.   Inner-Iter.     Column Row Layer    Maximum-Head-Change  Column Row Layer    Maximum-Flux-Residual          L2-NORM 
          0                 1           2             1    1     1       0.4443996241E-02       1    1    1         0.2306951291E+00      0.6521091225E+00
          0                 2           2             5    8     1      -0.4553042611E-02       5    8    1        -0.2582483928E+00      0.2998939541E+00
          0                 3           2             5    8     1       0.3100163661E-03       5    8    1         0.1807426924E-01      0.2098130173E-01
          0                 4           1             5    8     1      -0.1233584697E-04       5    8    1        -0.7391004408E-03      0.8580668603E-03

    ------------------------------------------------
       NWT REQUIRED            4 OUTER ITERATIONS 
       AND A TOTAL OF          7 INNER ITERATIONS.
    ------------------------------------------------

 NO OUTPUT CONTROL FOR STRESS PERIOD   17   TIME STEP   28
 
 SOLVING FOR HEAD 
                                                   Max.-Head-Change                         Max.-Flux-Residual
  Residual-Control   Outer-Iter.   Inner-Iter.     Column Row Layer    Maximum-Head-Change  Column Row Layer    Maximum-Flux-Residual          L2-NORM 
          0                 1           2             1    1     1       0.4439435059E-02       1    1    1         0.2304578756E+00      0.6451832834E+00
          0                 2           2             5    8     1      -0.4559456492E-02       5    8    1        -0.2586093035E+00      0.3002485021E+00
          0                 3           2             5    8     1       0.3104521018E-03       5    8    1         0.1809931443E-01      0.2100614976E-01
          0                 4           1             5    8     1      -0.1235318542E-04       5    8    1        -0.7401093903E-03      0.8591168111E-03

    ------------------------------------------------
       NWT REQUIRED            4 OUTER ITERATIONS 
       AND A TOTAL OF          7 INNER ITERATIONS.
    ------------------------------------------------

 NO OUTPUT CONTROL FOR STRESS PERIOD   17   TIME STEP   29
 
 SOLVING FOR HEAD 
                                                   Max.-Head-Change                         Max.-Flux-Residual
  Residual-Control   Outer-Iter.   Inner-Iter.     Column Row Layer    Maximum-Head-Change  Column Row Layer    Maximum-Flux-Residual          L2-NORM 
          0                 1           2             3    7     1       0.3967026151E-02       4   13    1        -0.2189204163E+00      0.7219759830E+00
          0                 2           2             5    8     1      -0.4565256293E-02       5    8    1        -0.2589510729E+00      0.3023241741E+00
          0                 3           2             5    8     1       0.3108470460E-03       5    8    1         0.1812308490E-01      0.2113865746E-01
          0                 4           1             5    8     1      -0.1236890080E-04       5    8    1        -0.7410667474E-03      0.8638107347E-03

    ------------------------------------------------
       NWT REQUIRED            4 OUTER ITERATIONS 
       AND A TOTAL OF          7 INNER ITERATIONS.
    ------------------------------------------------

 NO OUTPUT CONTROL FOR STRESS PERIOD   17   TIME STEP   30



 STREAM LISTING     PERIOD     17   STEP       30

 LAYER ROW COL. STREAM  RCH.  FLOW INTO     FLOW TO   FLOW OUT OF   OVRLND.     DIRECT     STREAM       STREAM     STREAM     STREAM   STREAMBED  STREAMBED
                SEG.NO.  NO.  STRM. RCH.    AQUIFER    STRM. RCH.    RUNOFF     PRECIP       ET          HEAD       DEPTH      WIDTH   CONDCTNC.   GRADIENT

   1    1    1     1     1    6.5908E+01  3.9227E-01   6.5516E+01  0.000E+00  0.000E+00  0.000E+00  1.09464E+03  1.596E+00  1.897E+01  8.536E-02  1.532E+00
   1    2    2     1     2    6.5516E+01  6.0756E-01   6.4909E+01  0.000E+00  0.000E+00  0.000E+00  1.08965E+03  1.590E+00  1.891E+01  1.324E-01  1.530E+00
   1    3    3     1     3    6.4909E+01  5.1821E-01   6.4390E+01  0.000E+00  0.000E+00  0.000E+00  1.08400E+03  1.583E+00  1.884E+01  1.131E-01  1.528E+00
   1    3    4     1     4    6.4390E+01  4.7725E-01   6.3913E+01  0.000E+00  0.000E+00  0.000E+00  1.07899E+03  1.577E+00  1.879E+01  1.043E-01  1.526E+00
   1    4    5     2     1    6.1913E+01  3.9598E-01   6.1517E+01  0.000E+00  0.000E+00  0.000E+00  1.07401E+03  2.077E+00  1.200E+01  7.800E-02  1.692E+00
   1    5    6     2     2    6.1517E+01  3.0418E-01   6.1213E+01  0.000E+00  0.000E+00  0.000E+00  1.06858E+03  2.070E+00  1.200E+01  6.000E-02  1.690E+00
   1    6    6     2     3    6.1213E+01  3.0381E-01   6.0909E+01  0.000E+00  0.000E+00  0.000E+00  1.06386E+03  2.063E+00  1.200E+01  6.000E-02  1.688E+00
   1    7    6     2     4    6.0909E+01  3.0344E-01   6.0606E+01  0.000E+00  0.000E+00  0.000E+00  1.05913E+03  2.057E+00  1.200E+01  6.000E-02  1.686E+00
   1    8    6     2     5    6.0606E+01  3.0307E-01   6.0303E+01  0.000E+00  0.000E+00  0.000E+00  1.05441E+03  2.051E+00  1.200E+01  6.000E-02  1.684E+00
   1    3    5     3     1    2.0000E+00  2.8252E-01   1.7175E+00  0.000E+00  0.000E+00  0.000E+00  1.07555E+03  1.909E+00  9.636E+00  7.227E-02  1.955E+00
   1    3    6     3     2    1.7175E+00  2.4905E-01   1.4684E+00  0.000E+00  0.000E+00  0.000E+00  1.07264E+03  1.727E+00  8.909E+00  6.682E-02  1.864E+00
   1    3    7     3     3    1.4684E+00  1.9718E-01   1.2712E+00  0.000E+00  0.000E+00  0.000E+00  1.06987E+03  1.555E+00  8.218E+00  5.547E-02  1.777E+00
   1    4    8     3     4    1.2712E+00  2.2567E-01   1.0456E+00  0.000E+00  0.000E+00  0.000E+00  1.06682E+03  1.364E+00  7.455E+00  6.709E-02  1.682E+00
   1    5    8     3     5    1.0456E+00  1.5790E-01   8.8768E-01  0.000E+00  0.000E+00  0.000E+00  1.06362E+03  1.164E+00  6.655E+00  4.991E-02  1.582E+00
   1    6    8     3     6    8.8768E-01  5.5980E-02   8.3170E-01  0.000E+00  0.000E+00  0.000E+00  1.06158E+03  1.036E+00  6.145E+00  1.844E-02  1.518E+00
   1    5   10     4     1    1.0000E+01  9.0919E-02   9.9091E+00  0.000E+00  0.000E+00  0.000E+00  1.07836E+03  6.368E-01  1.000E+01  2.500E-02  1.212E+00
   1    5    9     4     2    9.9091E+00  1.8158E-01   9.7275E+00  0.000E+00  0.000E+00  0.000E+00  1.07154E+03  6.315E-01  1.000E+01  5.000E-02  1.211E+00
   1    6    8     4     3    9.7275E+00  1.2689E-01   9.6006E+00  0.000E+00  0.000E+00  0.000E+00  1.06381E+03  6.256E-01  1.000E+01  3.500E-02  1.209E+00
   1    6    8     5     1    1.0432E+01  2.2686E-01   1.0205E+01  0.000E+00  0.000E+00  0.000E+00  1.05868E+03  6.790E-01  1.542E+01  6.166E-02  1.226E+00
   1    7    7     5     2    1.0205E+01  2.7894E-01   9.9265E+00  0.000E+00  0.000E+00  0.000E+00  1.05417E+03  6.732E-01  1.519E+01  7.594E-02  1.224E+00
   1    8    7     5     3    9.9265E+00  1.9221E-01   9.7343E+00  0.000E+00  0.000E+00  0.000E+00  1.04992E+03  6.676E-01  1.497E+01  5.241E-02  1.223E+00
   1    8    6     5     4    9.7343E+00  1.3577E-01   9.5985E+00  0.000E+00  0.000E+00  0.000E+00  1.04691E+03  6.637E-01  1.482E+01  3.706E-02  1.221E+00
   1    9    6     6     1    6.9901E+01  3.1559E-01   6.9586E+01  0.000E+00  0.000E+00  0.000E+00  1.04499E+03  2.260E+00  1.200E+01  6.000E-02  1.753E+00
   1   10    7     6     2    6.9586E+01  3.1522E-01   6.9270E+01  0.000E+00  0.000E+00  0.000E+00  1.04044E+03  2.254E+00  1.200E+01  6.000E-02  1.751E+00
   1   11    7     6     3    6.9270E+01  3.1485E-01   6.8955E+01  0.000E+00  0.000E+00  0.000E+00  1.03588E+03  2.248E+00  1.200E+01  6.000E-02  1.749E+00
   1   12    7     6     4    6.8955E+01  3.1448E-01   6.8641E+01  0.000E+00  0.000E+00  0.000E+00  1.03133E+03  2.241E+00  1.200E+01  6.000E-02  1.747E+00
   1   13    7     6     5    6.8641E+01  2.4846E-02   6.8616E+01  0.000E+00  0.000E+00  0.000E+00  1.02815E+03  2.238E+00  1.200E+01  2.400E-02  3.451E-01
   1   14    9     7     1    1.5000E+02  1.3305E+00   1.4867E+02  0.000E+00  0.000E+00  0.000E+00  1.03987E+03  2.288E+00  5.529E+01  5.593E-01  7.930E-01
   1   13    8     7     2    1.4867E+02  1.8215E+00   1.4685E+02  0.000E+00  0.000E+00  0.000E+00  1.03478E+03  2.279E+00  5.526E+01  6.148E-01  9.876E-01
   1   13    7     7     3    1.4685E+02  1.4398E+00   1.4541E+02  0.000E+00  0.000E+00  0.000E+00  1.02969E+03  2.271E+00  5.522E+01  5.585E-01  8.594E-01
   1   13    6     8     1    2.1402E+02  1.0652E+00   2.1296E+02  0.000E+00  0.000E+00  0.000E+00  1.02509E+03  3.215E+00  4.662E+01  4.751E-01  7.473E-01
   1   13    5     8     2    2.1296E+02  2.5230E-01   2.1271E+02  0.000E+00  0.000E+00  0.000E+00  1.01884E+03  3.212E+00  4.657E+01  4.746E-01  1.772E-01
   1   13    4     8     3    2.1271E+02 -2.3362E+00   2.1504E+02  0.000E+00  0.000E+00  0.000E+00  1.01259E+03  3.218E+00  4.666E+01  4.754E+00 -1.638E-01
   1   13    3     8     4    2.1504E+02 -3.6302E+00   2.1867E+02  0.000E+00  0.000E+00  0.000E+00  1.00636E+03  3.234E+00  4.690E+01  4.779E+00 -2.532E-01
   1   13    2     8     5    2.1867E+02 -2.7156E+00   2.2139E+02  0.000E+00  0.000E+00  0.000E+00  1.00013E+03  3.252E+00  4.715E+01  4.805E+00 -1.884E-01
   1   13    1     8     6    2.2139E+02 -2.0841E+00   2.2347E+02  0.000E+00  0.000E+00  0.000E+00  9.95140E+02  3.265E+00  4.735E+01  2.895E+00 -2.400E-01





UNSATURATED ZONE PACKAGE VOLUMETRIC BUDGET FOR  TIME STEP    30 STRESS PERIOD   17
  ------------------------------------------------------------------------------



     CUMULATIVE VOLUMES      L**3       RATES FOR THIS TIME STEP      L**3/T
     ------------------                 ------------------------

           IN:                                      IN:
           ---                                      ---
        INFILTRATION =   663785926.2644          INFILTRATION =           7.8575

          OUT:                                     OUT:
          ----                                     ----
              UZF ET =   537703056.8785                UZF ET =           7.8575
        UZF RECHARGE =    73804203.4082          UZF RECHARGE =       0.0000E+00

            IN - OUT =    52278665.9777              IN - OUT =      -1.1921E-06

          STORAGE:                                 STORAGE:
          --------                                 --------
      STORAGE CHANGE =    52280174.7342        STORAGE CHANGE =      -1.1444E-06

 PERCENT DISCREPANCY IS DIFFERENCE BETWEEN IN-OUT MINUS CHANGE IN STORAGE
 DIVIDED BY THE AVERAGE OF IN AND OUT TIMES 100

 PERCENT DISCREPANCY =          -0.00     PERCENT DISCREPANCY =           0.00






1
  VOLUMETRIC BUDGET FOR AGRICULTURAL FIELDS AT TIME STEP   30, STRESS PERIOD  17
  ------------------------------------------------------------------------------

     CUMULATIVE VOLUMES      L**3       RATES FOR THIS TIME STEP      L**3/T
     ------------------                 ------------------------

           IN:                                      IN:
           ---                                      ---
               AG WELLS  =   478245056.0000                 AG WELLS  =           3.4500
      DIVERSION SEGMENTS =           0.0000        DIVERSION SEGMENTS =           0.0000
           GW IRRIGATION =           0.0000             GW IRRIGATION =           0.0000
           SW IRRIGATION =           0.0000             SW IRRIGATION =           0.0000
        SYSTEM LOSSES GW =           0.0000          SYSTEM LOSSES GW =           0.0000
        SYSTEM LOSSES SW =           0.0000          SYSTEM LOSSES SW =           0.0000

                TOTAL IN =   478245056.0000                  TOTAL IN =           3.4500

          OUT:                                     OUT:
          ----                                     ----
               AG WELLS  =           0.0000                 AG WELLS  =           0.0000
      DIVERSION SEGMENTS =           0.0000        DIVERSION SEGMENTS =           0.0000
           GW IRRIGATION =   478245056.0000             GW IRRIGATION =           3.4500
           SW IRRIGATION =           0.0000             SW IRRIGATION =           0.0000
        SYSTEM LOSSES GW =           0.0000          SYSTEM LOSSES GW =           0.0000
        SYSTEM LOSSES SW =           0.0000          SYSTEM LOSSES SW =           0.0000

               TOTAL OUT =   478245056.0000                 TOTAL OUT =           3.4500

                IN - OUT =           0.0000                  IN - OUT =           0.0000

     PERCENT DISCREPANCY =           0.00         PERCENT DISCREPANCY =           0.00



1
  VOLUMETRIC BUDGET FOR ENTIRE MODEL AT END OF TIME STEP   30, STRESS PERIOD  17
  ------------------------------------------------------------------------------

     CUMULATIVE VOLUMES      L**3       RATES FOR THIS TIME STEP      L**3/T
     ------------------                 ------------------------

           IN:                                      IN:
           ---                                      ---
             STORAGE     =   635417984.0000               STORAGE     =           3.4019
       CONSTANT HEAD     =           0.0000         CONSTANT HEAD     =           0.0000
     HEAD DEP BOUNDS     =    12034758.0000       HEAD DEP BOUNDS     =           0.2854
      STREAM LEAKAGE     =   527528512.0000        STREAM LEAKAGE     =          13.2015
        UZF RECHARGE     =    73804200.0000          UZF RECHARGE     =           0.0000
               GW ET     =           0.0000                 GW ET     =           0.0000
     SURFACE LEAKAGE     =           0.0000       SURFACE LEAKAGE     =           0.0000
           AG WELLS      =           0.0000             AG WELLS      =           0.0000

                TOTAL IN =  1248785408.0000                  TOTAL IN =          16.8889

          OUT:                                     OUT:
          ----                                     ----
             STORAGE     =   308458432.0000               STORAGE     =           2.1422
       CONSTANT HEAD     =           0.0000         CONSTANT HEAD     =           0.0000
     HEAD DEP BOUNDS     =    12416705.0000       HEAD DEP BOUNDS     =           0.2987
      STREAM LEAKAGE     =   435412640.0000        STREAM LEAKAGE     =          10.7662
        UZF RECHARGE     =           0.0000          UZF RECHARGE     =           0.0000
               GW ET     =    14252489.0000                 GW ET     =           0.2319
     SURFACE LEAKAGE     =           0.0000       SURFACE LEAKAGE     =           0.0000
           AG WELLS      =   478245056.0000             AG WELLS      =           3.4500

               TOTAL OUT =  1248785280.0000                 TOTAL OUT =          16.8889

                IN - OUT =         128.0000                  IN - OUT =       1.7166E-05

     PERCENT DISCREPANCY =           0.00         PERCENT DISCREPANCY =           0.00






         TIME SUMMARY AT END OF TIME STEP   30 IN STRESS PERIOD   17
                    SECONDS     MINUTES      HOURS       DAYS        YEARS
                    -----------------------------------------------------------
   TIME STEP LENGTH  87667.      1461.1      24.352      1.0147     2.77799E-03
 STRESS PERIOD TIME 2.63000E+06  43833.      730.56      30.440     8.33397E-02
         TOTAL TIME 4.21664E+07 7.02774E+05  11713.      488.04      1.3362    
1
1
                            STRESS PERIOD NO.   18, LENGTH =   2630000.    
                            -----------------------------------------------

                              NUMBER OF TIME STEPS =    30

                               MULTIPLIER FOR DELT =     1.000

                            INITIAL TIME STEP SIZE =   87666.66    

 REUSING NON-PARAMETER GHB CELLS FROM LAST STRESS PERIOD

      2 GHB CELLS

 REUSING STREAM SEGMENT DATA FROM LAST STRESS PERIOD



            AREAL INFILTRATION RATE
 READING ON UNIT   19 WITH FORMAT: (10F4.0)            

            1           2           3           4           5           6           7           8           9          10
 ........................................................................................................................
   1   1.2000E-09   0.000       0.000       0.000       0.000       0.000       0.000       0.000       0.000       0.000    
   2   2.1000E-09  2.0000E-09  8.0000E-10  8.5000E-09   0.000       0.000       0.000       0.000       0.000       0.000    
   3   5.0000E-10  1.1000E-09  8.8000E-09  5.5000E-09   0.000       0.000       0.000       0.000       0.000       0.000    
   4   8.5000E-09  1.1000E-09  1.1000E-09  1.1000E-09  2.0000E-09   0.000       0.000       0.000       0.000       0.000    
   5   8.5000E-09  1.1000E-09  1.1000E-09  1.1000E-09  1.1000E-09   0.000       0.000       0.000       0.000       0.000    
   6   8.5000E-09  5.2000E-09  2.1000E-09  1.1000E-09  1.5000E-09   0.000       0.000       0.000       0.000       0.000    
   7   8.5000E-09  5.2000E-09  2.1000E-09  1.2000E-09  2.0000E-09   0.000       0.000       0.000       0.000       0.000    
   8   5.0000E-10  5.2000E-09  2.1000E-09  1.2000E-09  5.0000E-09   0.000       0.000       0.000       0.000       0.000    
   9   5.0000E-10  5.2000E-09  2.1000E-09  1.2000E-09  5.0000E-09   0.000       0.000       0.000       0.000       0.000    
  10   5.0000E-10  5.2000E-09  2.1000E-09  1.2000E-09  5.8000E-09   0.000       0.000       0.000       0.000       0.000    
  11   1.0000E-10  1.1000E-09  1.1000E-09  1.2000E-09  5.0000E-09   0.000       0.000       0.000       0.000       0.000    
  12   1.1000E-09  1.1000E-09  1.1000E-09  1.1000E-09  2.0000E-09   0.000       0.000       0.000       0.000       0.000    
  13   1.1000E-09  2.2000E-09  2.2000E-09  2.1000E-09  1.0000E-09   0.000       0.000       0.000       0.000       0.000    
  14   2.0000E-10  5.5000E-09  5.5000E-09  5.2000E-09  1.0000E-09   0.000       0.000       0.000       0.000       0.000    
  15    0.000      8.8000E-09  8.8000E-09   0.000       0.000       0.000       0.000       0.000       0.000       0.000    

                  ET RATE =  5.000000E-08

 USING ET EXTINCTION DEPTH FROM PREVIOUS STRESS PERIOD. CURRENT PERIOD IS:      18

 USING EXTINCTION WATER CONTENT FROM PREVIOUS STRESS PERIOD. CURRENT PERIOD IS:      18

 USING AIR ENTRY PRESSURE FROM PREVIOUS STRESS PERIOD. CURRENT PERIOD IS:      18

 USING ROOT PRESSURE HEAD FROM PREVIOUS STRESS PERIOD. CURRENT PERIOD IS:      18

 USING ROOT ACTIVITY FROM PREVIOUS STRESS PERIOD. CURRENT PERIOD IS:      18

 PROCESSING AG STRESS PERIOD DATA

 READING AG STRESS PERIOD DATA

 READING IRRIGATION WELL

 END PROCESSING AG STRESS PERIOD DATA OPTIONS
 
 SOLVING FOR HEAD 
                                                   Max.-Head-Change                         Max.-Flux-Residual
  Residual-Control   Outer-Iter.   Inner-Iter.     Column Row Layer    Maximum-Head-Change  Column Row Layer    Maximum-Flux-Residual          L2-NORM 
          0                 1           2             4    7     1      -0.1415194011E-01       4    7    1        -0.7412082014E+00      0.1800613156E+01
          0                 2           2             5    8     1      -0.3233461182E-02       5    8    1        -0.1804038387E+00      0.2499467757E+00
          0                 3           2             5    8     1       0.3145270184E-03       5    8    1         0.1798764612E-01      0.2220122801E-01
          0                 4           1             5    8     1      -0.2141812948E-04       5    8    1        -0.1255558050E-02      0.1415174523E-02

    ------------------------------------------------
       NWT REQUIRED            4 OUTER ITERATIONS 
       AND A TOTAL OF          7 INNER ITERATIONS.
    ------------------------------------------------

 NO OUTPUT CONTROL FOR STRESS PERIOD   18   TIME STEP    1
 
 SOLVING FOR HEAD 
                                                   Max.-Head-Change                         Max.-Flux-Residual
  Residual-Control   Outer-Iter.   Inner-Iter.     Column Row Layer    Maximum-Head-Change  Column Row Layer    Maximum-Flux-Residual          L2-NORM 
          0                 1           2             4    7     1      -0.1410979556E-01       4    7    1        -0.7393390436E+00      0.1758354743E+01
          0                 2           2             5    8     1      -0.3102992571E-02       5    8    1        -0.1732003123E+00      0.2407982256E+00
          0                 3           1             5    8     1       0.3018360253E-03       5    8    1         0.1726714474E-01      0.2133432151E-01
          0                 4           1             5    8     1      -0.2055391691E-04       5    8    1        -0.1205112565E-02      0.1356219085E-02

    ------------------------------------------------
       NWT REQUIRED            4 OUTER ITERATIONS 
       AND A TOTAL OF          6 INNER ITERATIONS.
    ------------------------------------------------

 NO OUTPUT CONTROL FOR STRESS PERIOD   18   TIME STEP    2
 
 SOLVING FOR HEAD 
                                                   Max.-Head-Change                         Max.-Flux-Residual
  Residual-Control   Outer-Iter.   Inner-Iter.     Column Row Layer    Maximum-Head-Change  Column Row Layer    Maximum-Flux-Residual          L2-NORM 
          0                 1           2             4    7     1      -0.1398716801E-01       4    7    1        -0.7332033821E+00      0.1709634423E+01
          0                 2           2             5    8     1      -0.3083757462E-02       5    8    1        -0.1721285746E+00      0.2383904559E+00
          0                 3           2             5    8     1       0.2999649822E-03       5    8    1         0.1716023394E-01      0.2122638525E-01
          0                 4           1             5    8     1      -0.2042650823E-04       5    8    1        -0.1197646639E-02      0.1355537036E-02

    ------------------------------------------------
       NWT REQUIRED            4 OUTER ITERATIONS 
       AND A TOTAL OF          7 INNER ITERATIONS.
    ------------------------------------------------

 NO OUTPUT CONTROL FOR STRESS PERIOD   18   TIME STEP    3
 
 SOLVING FOR HEAD 
                                                   Max.-Head-Change                         Max.-Flux-Residual
  Residual-Control   Outer-Iter.   Inner-Iter.     Column Row Layer    Maximum-Head-Change  Column Row Layer    Maximum-Flux-Residual          L2-NORM 
          0                 1           2             4    7     1      -0.1386034283E-01       4    7    1        -0.7268231329E+00      0.1663366012E+01
          0                 2           2             5    8     1      -0.3130964877E-02       5    8    1        -0.1747245968E+00      0.2384436005E+00
          0                 3           2             5    8     1       0.3045569565E-03       5    8    1         0.1742019201E-01      0.2137376318E-01
          0                 4           1             5    8     1      -0.2073920510E-04       5    8    1        -0.1215867978E-02      0.1373401925E-02

    ------------------------------------------------
       NWT REQUIRED            4 OUTER ITERATIONS 
       AND A TOTAL OF          7 INNER ITERATIONS.
    ------------------------------------------------

 NO OUTPUT CONTROL FOR STRESS PERIOD   18   TIME STEP    4
 
 SOLVING FOR HEAD 
                                                   Max.-Head-Change                         Max.-Flux-Residual
  Residual-Control   Outer-Iter.   Inner-Iter.     Column Row Layer    Maximum-Head-Change  Column Row Layer    Maximum-Flux-Residual          L2-NORM 
          0                 1           2             4    7     1      -0.1373008929E-01       4    7    1        -0.7202403180E+00      0.1621037495E+01
          0                 2           2             5    8     1      -0.3165503099E-02       5    8    1        -0.1766204247E+00      0.2382243861E+00
          0                 3           2             5    8     1       0.3079165692E-03       5    8    1         0.1761013790E-01      0.2147370960E-01
          0                 4           1             5    8     1      -0.2096798212E-04       5    8    1        -0.1229188935E-02      0.1386777213E-02

    ------------------------------------------------
       NWT REQUIRED            4 OUTER ITERATIONS 
       AND A TOTAL OF          7 INNER ITERATIONS.
    ------------------------------------------------

 NO OUTPUT CONTROL FOR STRESS PERIOD   18   TIME STEP    5
 
 SOLVING FOR HEAD 
                                                   Max.-Head-Change                         Max.-Flux-Residual
  Residual-Control   Outer-Iter.   Inner-Iter.     Column Row Layer    Maximum-Head-Change  Column Row Layer    Maximum-Flux-Residual          L2-NORM 
          0                 1           2             4    7     1      -0.1359656680E-01       4    7    1        -0.7134646540E+00      0.1582072660E+01
          0                 2           2             5    8     1      -0.3196301445E-02       5    8    1        -0.1783089958E+00      0.2380826126E+00
          0                 3           2             5    8     1       0.3109123950E-03       5    8    1         0.1777937719E-01      0.2156910659E-01
          0                 4           1             5    8     1      -0.2117198691E-04       5    8    1        -0.1241061708E-02      0.1399098860E-02

    ------------------------------------------------
       NWT REQUIRED            4 OUTER ITERATIONS 
       AND A TOTAL OF          7 INNER ITERATIONS.
    ------------------------------------------------

 NO OUTPUT CONTROL FOR STRESS PERIOD   18   TIME STEP    6
 
 SOLVING FOR HEAD 
                                                   Max.-Head-Change                         Max.-Flux-Residual
  Residual-Control   Outer-Iter.   Inner-Iter.     Column Row Layer    Maximum-Head-Change  Column Row Layer    Maximum-Flux-Residual          L2-NORM 
          0                 1           2             4    7     1      -0.1346047012E-01       4    7    1        -0.7065341917E+00      0.1546010065E+01
          0                 2           2             5    8     1      -0.3225502495E-02       5    8    1        -0.1799086813E+00      0.2380575337E+00
          0                 3           2             5    8     1       0.3137528483E-03       5    8    1         0.1793974710E-01      0.2166381531E-01
          0                 4           1             5    8     1      -0.2136541157E-04       5    8    1        -0.1252314938E-02      0.1410866908E-02

    ------------------------------------------------
       NWT REQUIRED            4 OUTER ITERATIONS 
       AND A TOTAL OF          7 INNER ITERATIONS.
    ------------------------------------------------

 NO OUTPUT CONTROL FOR STRESS PERIOD   18   TIME STEP    7
 
 SOLVING FOR HEAD 
                                                   Max.-Head-Change                         Max.-Flux-Residual
  Residual-Control   Outer-Iter.   Inner-Iter.     Column Row Layer    Maximum-Head-Change  Column Row Layer    Maximum-Flux-Residual          L2-NORM 
          0                 1           2             4    7     1      -0.1332191299E-01       4    7    1        -0.6994555164E+00      0.1512448388E+01
          0                 2           2             5    8     1      -0.3253318699E-02       5    8    1        -0.1814264019E+00      0.2380285917E+00
          0                 3           2             5    8     1       0.3164585952E-03       5    8    1         0.1809208427E-01      0.2175517211E-01
          0                 4           1             5    8     1      -0.2154966290E-04       5    8    1        -0.1263016980E-02      0.1422128932E-02

    ------------------------------------------------
       NWT REQUIRED            4 OUTER ITERATIONS 
       AND A TOTAL OF          7 INNER ITERATIONS.
    ------------------------------------------------

 NO OUTPUT CONTROL FOR STRESS PERIOD   18   TIME STEP    8
 
 SOLVING FOR HEAD 
                                                   Max.-Head-Change                         Max.-Flux-Residual
  Residual-Control   Outer-Iter.   Inner-Iter.     Column Row Layer    Maximum-Head-Change  Column Row Layer    Maximum-Flux-Residual          L2-NORM 
          0                 1           2             4    7     1      -0.1318179439E-01       4    7    1        -0.6922683565E+00      0.1481196025E+01
          0                 2           2             5    8     1      -0.3279533800E-02       5    8    1        -0.1828660533E+00      0.2382712558E+00
          0                 3           2             5    8     1       0.3190085974E-03       5    8    1         0.1823630284E-01      0.2185642589E-01
          0                 4           1             5    8     1      -0.2172330866E-04       5    8    1        -0.1273129555E-02      0.1433119669E-02

    ------------------------------------------------
       NWT REQUIRED            4 OUTER ITERATIONS 
       AND A TOTAL OF          7 INNER ITERATIONS.
    ------------------------------------------------

 NO OUTPUT CONTROL FOR STRESS PERIOD   18   TIME STEP    9
 
 SOLVING FOR HEAD 
                                                   Max.-Head-Change                         Max.-Flux-Residual
  Residual-Control   Outer-Iter.   Inner-Iter.     Column Row Layer    Maximum-Head-Change  Column Row Layer    Maximum-Flux-Residual          L2-NORM 
          0                 1           2             4    7     1      -0.1303991443E-01       4    7    1        -0.6849768549E+00      0.1451877796E+01
          0                 2           2             5    8     1      -0.3304539406E-02       5    8    1        -0.1842331239E+00      0.2384690641E+00
          0                 3           2             5    8     1       0.3214388490E-03       5    8    1         0.1837090449E-01      0.2194893070E-01
          0                 4           1             5    8     1      -0.2188879960E-04       5    8    1        -0.1282416848E-02      0.1443244749E-02

    ------------------------------------------------
       NWT REQUIRED            4 OUTER ITERATIONS 
       AND A TOTAL OF          7 INNER ITERATIONS.
    ------------------------------------------------

 NO OUTPUT CONTROL FOR STRESS PERIOD   18   TIME STEP   10
 
 SOLVING FOR HEAD 
                                                   Max.-Head-Change                         Max.-Flux-Residual
  Residual-Control   Outer-Iter.   Inner-Iter.     Column Row Layer    Maximum-Head-Change  Column Row Layer    Maximum-Flux-Residual          L2-NORM 
          0                 1           2             4    7     1      -0.1289693966E-01       4    7    1        -0.6776130652E+00      0.1424231927E+01
          0                 2           2             5    8     1      -0.3328314283E-02       5    8    1        -0.1855318667E+00      0.2387044063E+00
          0                 3           2             5    8     1       0.3237535862E-03       5    8    1         0.1850187200E-01      0.2204258985E-01
          0                 4           1             5    8     1      -0.2204642519E-04       5    8    1        -0.1291650796E-02      0.1453490507E-02

    ------------------------------------------------
       NWT REQUIRED            4 OUTER ITERATIONS 
       AND A TOTAL OF          7 INNER ITERATIONS.
    ------------------------------------------------

 NO OUTPUT CONTROL FOR STRESS PERIOD   18   TIME STEP   11
 
 SOLVING FOR HEAD 
                                                   Max.-Head-Change                         Max.-Flux-Residual
  Residual-Control   Outer-Iter.   Inner-Iter.     Column Row Layer    Maximum-Head-Change  Column Row Layer    Maximum-Flux-Residual          L2-NORM 
          0                 1           2             4    7     1      -0.1275287066E-01       4    7    1        -0.6701777690E+00      0.1398071130E+01
          0                 2           2             5    8     1      -0.3350947536E-02       5    8    1        -0.1867672511E+00      0.2389655805E+00
          0                 3           2             5    8     1       0.3259551745E-03       5    8    1         0.1862636090E-01      0.2213383819E-01
          0                 4           1             5    8     1      -0.2219634528E-04       5    8    1        -0.1300429623E-02      0.1463102139E-02

    ------------------------------------------------
       NWT REQUIRED            4 OUTER ITERATIONS 
       AND A TOTAL OF          7 INNER ITERATIONS.
    ------------------------------------------------

 NO OUTPUT CONTROL FOR STRESS PERIOD   18   TIME STEP   12
 
 SOLVING FOR HEAD 
                                                   Max.-Head-Change                         Max.-Flux-Residual
  Residual-Control   Outer-Iter.   Inner-Iter.     Column Row Layer    Maximum-Head-Change  Column Row Layer    Maximum-Flux-Residual          L2-NORM 
          0                 1           2             4    7     1      -0.1260810757E-01       4    7    1        -0.6626931101E+00      0.1373227191E+01
          0                 2           2             5    8     1      -0.3372515864E-02       5    8    1        -0.1879435607E+00      0.2392464572E+00
          0                 3           2             5    8     1       0.3280531747E-03       5    8    1         0.1874491939E-01      0.2222283135E-01
          0                 4           1             5    8     1      -0.2233921120E-04       5    8    1        -0.1308791740E-02      0.1472424368E-02

    ------------------------------------------------
       NWT REQUIRED            4 OUTER ITERATIONS 
       AND A TOTAL OF          7 INNER ITERATIONS.
    ------------------------------------------------

 NO OUTPUT CONTROL FOR STRESS PERIOD   18   TIME STEP   13
 
 SOLVING FOR HEAD 
                                                   Max.-Head-Change                         Max.-Flux-Residual
  Residual-Control   Outer-Iter.   Inner-Iter.     Column Row Layer    Maximum-Head-Change  Column Row Layer    Maximum-Flux-Residual          L2-NORM 
          0                 1           2             4    7     1      -0.1246289113E-01       4    7    1        -0.6551724634E+00      0.1349587361E+01
          0                 2           2             5    8     1      -0.3393057799E-02       5    8    1        -0.1890630177E+00      0.2395388452E+00
          0                 3           2             5    8     1       0.3300513356E-03       5    8    1         0.1885777027E-01      0.2230933305E-01
          0                 4           1             5    8     1      -0.2247527881E-04       5    8    1        -0.1316752825E-02      0.1481380956E-02

    ------------------------------------------------
       NWT REQUIRED            4 OUTER ITERATIONS 
       AND A TOTAL OF          7 INNER ITERATIONS.
    ------------------------------------------------

 NO OUTPUT CONTROL FOR STRESS PERIOD   18   TIME STEP   14
 
 SOLVING FOR HEAD 
                                                   Max.-Head-Change                         Max.-Flux-Residual
  Residual-Control   Outer-Iter.   Inner-Iter.     Column Row Layer    Maximum-Head-Change  Column Row Layer    Maximum-Flux-Residual          L2-NORM 
          0                 1           2             4    7     1      -0.1231744628E-01       4    7    1        -0.6476283122E+00      0.1327032238E+01
          0                 2           2             5    8     1      -0.3412672365E-02       5    8    1        -0.1901310857E+00      0.2398405353E+00
          0                 3           2             5    8     1       0.3319592888E-03       5    8    1         0.1896539371E-01      0.2239326194E-01
          0                 4           1             5    8     1      -0.2260520356E-04       5    8    1        -0.1324341960E-02      0.1489984095E-02

    ------------------------------------------------
       NWT REQUIRED            4 OUTER ITERATIONS 
       AND A TOTAL OF          7 INNER ITERATIONS.
    ------------------------------------------------

 NO OUTPUT CONTROL FOR STRESS PERIOD   18   TIME STEP   15
 
 SOLVING FOR HEAD 
                                                   Max.-Head-Change                         Max.-Flux-Residual
  Residual-Control   Outer-Iter.   Inner-Iter.     Column Row Layer    Maximum-Head-Change  Column Row Layer    Maximum-Flux-Residual          L2-NORM 
          0                 1           2             4    7     1      -0.1217184277E-01       4    7    1        -0.6400649488E+00      0.1305466192E+01
          0                 2           2             5    8     1      -0.3431398520E-02       5    8    1        -0.1911499945E+00      0.2401468959E+00
          0                 3           2             5    8     1       0.3337808242E-03       5    8    1         0.1906783849E-01      0.2247423466E-01
          0                 4           1             5    8     1      -0.2272924319E-04       5    8    1        -0.1331550757E-02      0.1498186902E-02

    ------------------------------------------------
       NWT REQUIRED            4 OUTER ITERATIONS 
       AND A TOTAL OF          7 INNER ITERATIONS.
    ------------------------------------------------

 NO OUTPUT CONTROL FOR STRESS PERIOD   18   TIME STEP   16
 
 SOLVING FOR HEAD 
                                                   Max.-Head-Change                         Max.-Flux-Residual
  Residual-Control   Outer-Iter.   Inner-Iter.     Column Row Layer    Maximum-Head-Change  Column Row Layer    Maximum-Flux-Residual          L2-NORM 
          0                 1           2             4    7     1      -0.1202654548E-01       4    7    1        -0.6325080998E+00      0.1284818288E+01
          0                 2           2             5    8     1      -0.3449286598E-02       5    8    1        -0.1921221018E+00      0.2404473068E+00
          0                 3           2             5    8     1       0.3355208383E-03       5    8    1         0.1916552802E-01      0.2255187899E-01
          0                 4           1             5    8     1      -0.2284773189E-04       5    8    1        -0.1338421589E-02      0.1505995583E-02

    ------------------------------------------------
       NWT REQUIRED            4 OUTER ITERATIONS 
       AND A TOTAL OF          7 INNER ITERATIONS.
    ------------------------------------------------

 NO OUTPUT CONTROL FOR STRESS PERIOD   18   TIME STEP   17
 
 SOLVING FOR HEAD 
                                                   Max.-Head-Change                         Max.-Flux-Residual
  Residual-Control   Outer-Iter.   Inner-Iter.     Column Row Layer    Maximum-Head-Change  Column Row Layer    Maximum-Flux-Residual          L2-NORM 
          0                 1           2             4    7     1      -0.1188145736E-01       4    7    1        -0.6249528439E+00      0.1265009953E+01
          0                 2           2             5    8     1      -0.3466400306E-02       5    8    1        -0.1930518506E+00      0.2407549908E+00
          0                 3           2             5    8     1       0.3371855272E-03       5    8    1         0.1925896901E-01      0.2262742285E-01
          0                 4           1             5    8     1      -0.2296109117E-04       5    8    1        -0.1344994165E-02      0.1513499346E-02

    ------------------------------------------------
       NWT REQUIRED            4 OUTER ITERATIONS 
       AND A TOTAL OF          7 INNER ITERATIONS.
    ------------------------------------------------

 NO OUTPUT CONTROL FOR STRESS PERIOD   18   TIME STEP   18
 
 SOLVING FOR HEAD 
                                                   Max.-Head-Change                         Max.-Flux-Residual
  Residual-Control   Outer-Iter.   Inner-Iter.     Column Row Layer    Maximum-Head-Change  Column Row Layer    Maximum-Flux-Residual          L2-NORM 
          0                 1           2             4    7     1      -0.1173686887E-01       4    7    1        -0.6174153497E+00      0.1245980746E+01
          0                 2           2             5    8     1      -0.3482756563E-02       5    8    1        -0.1939397509E+00      0.2410598022E+00
          0                 3           2             5    8     1       0.3387765374E-03       5    8    1         0.1934822529E-01      0.2270035713E-01
          0                 4           1             5    8     1      -0.2306943298E-04       5    8    1        -0.1351273795E-02      0.1520724752E-02

    ------------------------------------------------
       NWT REQUIRED            4 OUTER ITERATIONS 
       AND A TOTAL OF          7 INNER ITERATIONS.
    ------------------------------------------------

 NO OUTPUT CONTROL FOR STRESS PERIOD   18   TIME STEP   19
 
 SOLVING FOR HEAD 
                                                   Max.-Head-Change                         Max.-Flux-Residual
  Residual-Control   Outer-Iter.   Inner-Iter.     Column Row Layer    Maximum-Head-Change  Column Row Layer    Maximum-Flux-Residual          L2-NORM 
          0                 1           2             4    7     1      -0.1159292677E-01       4    7    1        -0.6099037622E+00      0.1227683029E+01
          0                 2           2             5    8     1      -0.3498427347E-02       5    8    1        -0.1947898479E+00      0.2413626534E+00
          0                 3           2             5    8     1       0.3403008697E-03       5    8    1         0.1943369925E-01      0.2277091247E-01
          0                 4           1             5    8     1      -0.2317323444E-04       5    8    1        -0.1357288550E-02      0.1527665841E-02

    ------------------------------------------------
       NWT REQUIRED            4 OUTER ITERATIONS 
       AND A TOTAL OF          7 INNER ITERATIONS.
    ------------------------------------------------

 NO OUTPUT CONTROL FOR STRESS PERIOD   18   TIME STEP   20
 
 SOLVING FOR HEAD 
                                                   Max.-Head-Change                         Max.-Flux-Residual
  Residual-Control   Outer-Iter.   Inner-Iter.     Column Row Layer    Maximum-Head-Change  Column Row Layer    Maximum-Flux-Residual          L2-NORM 
          0                 1           2             4    7     1      -0.1144976310E-01       4    7    1        -0.6024256904E+00      0.1210065010E+01
          0                 2           2             5    8     1      -0.3513454995E-02       5    8    1        -0.1956044612E+00      0.2416620822E+00
          0                 3           2             5    8     1       0.3417626430E-03       5    8    1         0.1951562349E-01      0.2283906356E-01
          0                 4           1             5    8     1      -0.2327277567E-04       5    8    1        -0.1363054713E-02      0.1534308174E-02

    ------------------------------------------------
       NWT REQUIRED            4 OUTER ITERATIONS 
       AND A TOTAL OF          7 INNER ITERATIONS.
    ------------------------------------------------

 NO OUTPUT CONTROL FOR STRESS PERIOD   18   TIME STEP   21
 
 SOLVING FOR HEAD 
                                                   Max.-Head-Change                         Max.-Flux-Residual
  Residual-Control   Outer-Iter.   Inner-Iter.     Column Row Layer    Maximum-Head-Change  Column Row Layer    Maximum-Flux-Residual          L2-NORM 
          0                 1           2             4    7     1      -0.1130736496E-01       4    7    1        -0.5949806121E+00      0.1193087269E+01
          0                 2           2             5    8     1      -0.3527861698E-02       5    8    1        -0.1963848405E+00      0.2419568507E+00
          0                 3           2             5    8     1       0.3431640154E-03       5    8    1         0.1959412222E-01      0.2290501288E-01
          0                 4           1             5    8     1      -0.2336820423E-04       5    8    1        -0.1368580951E-02      0.1540767113E-02

    ------------------------------------------------
       NWT REQUIRED            4 OUTER ITERATIONS 
       AND A TOTAL OF          7 INNER ITERATIONS.
    ------------------------------------------------

 NO OUTPUT CONTROL FOR STRESS PERIOD   18   TIME STEP   22
 
 SOLVING FOR HEAD 
                                                   Max.-Head-Change                         Max.-Flux-Residual
  Residual-Control   Outer-Iter.   Inner-Iter.     Column Row Layer    Maximum-Head-Change  Column Row Layer    Maximum-Flux-Residual          L2-NORM 
          0                 1           2             4    7     1      -0.1116611624E-01       4    7    1        -0.5875899643E+00      0.1176714278E+01
          0                 2           2             5    8     1      -0.3541668397E-02       5    8    1        -0.1971321701E+00      0.2422468232E+00
          0                 3           2             5    8     1       0.3445070242E-03       5    8    1         0.1966931308E-01      0.2296861294E-01
          0                 4           1             5    8     1      -0.2345965833E-04       5    8    1        -0.1373875450E-02      0.1546905418E-02

    ------------------------------------------------
       NWT REQUIRED            4 OUTER ITERATIONS 
       AND A TOTAL OF          7 INNER ITERATIONS.
    ------------------------------------------------

 NO OUTPUT CONTROL FOR STRESS PERIOD   18   TIME STEP   23
 
 SOLVING FOR HEAD 
                                                   Max.-Head-Change                         Max.-Flux-Residual
  Residual-Control   Outer-Iter.   Inner-Iter.     Column Row Layer    Maximum-Head-Change  Column Row Layer    Maximum-Flux-Residual          L2-NORM 
          0                 1           2             4    7     1      -0.1102583526E-01       4    7    1        -0.5802441765E+00      0.1160903170E+01
          0                 2           2             5    8     1      -0.3554943098E-02       5    8    1        -0.1978502008E+00      0.2425312949E+00
          0                 3           2             5    8     1       0.3457982843E-03       5    8    1         0.1974157135E-01      0.2303018673E-01
          0                 4           1             5    8     1      -0.2354758813E-04       5    8    1        -0.1378964467E-02      0.1552866276E-02

    ------------------------------------------------
       NWT REQUIRED            4 OUTER ITERATIONS 
       AND A TOTAL OF          7 INNER ITERATIONS.
    ------------------------------------------------

 NO OUTPUT CONTROL FOR STRESS PERIOD   18   TIME STEP   24
 
 SOLVING FOR HEAD 
                                                   Max.-Head-Change                         Max.-Flux-Residual
  Residual-Control   Outer-Iter.   Inner-Iter.     Column Row Layer    Maximum-Head-Change  Column Row Layer    Maximum-Flux-Residual          L2-NORM 
          0                 1           2             4    7     1      -0.1088689487E-01       4    7    1        -0.5729633038E+00      0.1145646686E+01
          0                 2           2             5    8     1      -0.3567698818E-02       5    8    1        -0.1985396859E+00      0.2428112761E+00
          0                 3           2             5    8     1       0.3470390621E-03       5    8    1         0.1981097129E-01      0.2308967235E-01
          0                 4           1             5    8     1      -0.2363208120E-04       5    8    1        -0.1383853174E-02      0.1558567155E-02

    ------------------------------------------------
       NWT REQUIRED            4 OUTER ITERATIONS 
       AND A TOTAL OF          7 INNER ITERATIONS.
    ------------------------------------------------

 NO OUTPUT CONTROL FOR STRESS PERIOD   18   TIME STEP   25
 
 SOLVING FOR HEAD 
                                                   Max.-Head-Change                         Max.-Flux-Residual
  Residual-Control   Outer-Iter.   Inner-Iter.     Column Row Layer    Maximum-Head-Change  Column Row Layer    Maximum-Flux-Residual          L2-NORM 
          0                 1           2             4    7     1      -0.1074909477E-01       4    7    1        -0.5657372039E+00      0.1130888298E+01
          0                 2           2             5    8     1      -0.3579967371E-02       5    8    1        -0.1992023927E+00      0.2430864070E+00
          0                 3           2             5    8     1       0.3482324516E-03       5    8    1         0.1987768939E-01      0.2314735616E-01
          0                 4           1             5    8     1      -0.2371334616E-04       5    8    1        -0.1388553825E-02      0.1564084075E-02

    ------------------------------------------------
       NWT REQUIRED            4 OUTER ITERATIONS 
       AND A TOTAL OF          7 INNER ITERATIONS.
    ------------------------------------------------

 NO OUTPUT CONTROL FOR STRESS PERIOD   18   TIME STEP   26
 
 SOLVING FOR HEAD 
                                                   Max.-Head-Change                         Max.-Flux-Residual
  Residual-Control   Outer-Iter.   Inner-Iter.     Column Row Layer    Maximum-Head-Change  Column Row Layer    Maximum-Flux-Residual          L2-NORM 
          0                 1           2             4    7     1      -0.1061264397E-01       4    7    1        -0.5585775970E+00      0.1116616415E+01
          0                 2           2             5    8     1      -0.3591775275E-02       5    8    1        -0.1998397818E+00      0.2433555800E+00
          0                 3           2             5    8     1       0.3493810330E-03       5    8    1         0.1994187180E-01      0.2320309036E-01
          0                 4           1             5    8     1      -0.2379156017E-04       5    8    1        -0.1393076747E-02      0.1569392497E-02

    ------------------------------------------------
       NWT REQUIRED            4 OUTER ITERATIONS 
       AND A TOTAL OF          7 INNER ITERATIONS.
    ------------------------------------------------

 NO OUTPUT CONTROL FOR STRESS PERIOD   18   TIME STEP   27
 
 SOLVING FOR HEAD 
                                                   Max.-Head-Change                         Max.-Flux-Residual
  Residual-Control   Outer-Iter.   Inner-Iter.     Column Row Layer    Maximum-Head-Change  Column Row Layer    Maximum-Flux-Residual          L2-NORM 
          0                 1           2             4    7     1      -0.1047760791E-01       4    7    1        -0.5514879505E+00      0.1102813228E+01
          0                 2           2             5    8     1      -0.3603132895E-02       5    8    1        -0.2004524358E+00      0.2436193694E+00
          0                 3           2             5    8     1       0.3504858140E-03       5    8    1         0.2000357651E-01      0.2325703360E-01
          0                 4           1             5    8     1      -0.2386679150E-04       5    8    1        -0.1397425923E-02      0.1574529840E-02

    ------------------------------------------------
       NWT REQUIRED            4 OUTER ITERATIONS 
       AND A TOTAL OF          7 INNER ITERATIONS.
    ------------------------------------------------

 NO OUTPUT CONTROL FOR STRESS PERIOD   18   TIME STEP   28
 
 SOLVING FOR HEAD 
                                                   Max.-Head-Change                         Max.-Flux-Residual
  Residual-Control   Outer-Iter.   Inner-Iter.     Column Row Layer    Maximum-Head-Change  Column Row Layer    Maximum-Flux-Residual          L2-NORM 
          0                 1           2             4    7     1      -0.1034404344E-01       4    7    1        -0.5444716588E+00      0.1089444941E+01
          0                 2           2             5    8     1      -0.3614082054E-02       5    8    1        -0.2010426613E+00      0.2438788753E+00
          0                 3           2             5    8     1       0.3515508637E-03       5    8    1         0.2006303429E-01      0.2330936815E-01
          0                 4           1             5    8     1      -0.2393931778E-04       5    8    1        -0.1401617567E-02      0.1579473657E-02

    ------------------------------------------------
       NWT REQUIRED            4 OUTER ITERATIONS 
       AND A TOTAL OF          7 INNER ITERATIONS.
    ------------------------------------------------

 NO OUTPUT CONTROL FOR STRESS PERIOD   18   TIME STEP   29
 
 SOLVING FOR HEAD 
                                                   Max.-Head-Change                         Max.-Flux-Residual
  Residual-Control   Outer-Iter.   Inner-Iter.     Column Row Layer    Maximum-Head-Change  Column Row Layer    Maximum-Flux-Residual          L2-NORM 
          0                 1           2             4    7     1      -0.1021213267E-01       4    7    1        -0.5375390363E+00      0.1076508626E+01
          0                 2           2             5    8     1      -0.3624643238E-02       5    8    1        -0.2016116496E+00      0.2441332658E+00
          0                 3           2             5    8     1       0.3525781736E-03       5    8    1         0.2012036250E-01      0.2336004877E-01
          0                 4           1             5    8     1      -0.2400927390E-04       5    8    1        -0.1405659713E-02      0.1584267621E-02

    ------------------------------------------------
       NWT REQUIRED            4 OUTER ITERATIONS 
       AND A TOTAL OF          7 INNER ITERATIONS.
    ------------------------------------------------

 NO OUTPUT CONTROL FOR STRESS PERIOD   18   TIME STEP   30



 STREAM LISTING     PERIOD     18   STEP       30

 LAYER ROW COL. STREAM  RCH.  FLOW INTO     FLOW TO   FLOW OUT OF   OVRLND.     DIRECT     STREAM       STREAM     STREAM     STREAM   STREAMBED  STREAMBED
                SEG.NO.  NO.  STRM. RCH.    AQUIFER    STRM. RCH.    RUNOFF     PRECIP       ET          HEAD       DEPTH      WIDTH   CONDCTNC.   GRADIENT

   1    1    1     1     1    6.3001E+01  3.8237E-01   6.2619E+01  0.000E+00  0.000E+00  0.000E+00  1.09461E+03  1.562E+00  1.863E+01  8.382E-02  1.521E+00
   1    2    2     1     2    6.2619E+01  5.9218E-01   6.2026E+01  0.000E+00  0.000E+00  0.000E+00  1.08961E+03  1.556E+00  1.857E+01  1.300E-01  1.519E+00
   1    3    3     1     3    6.2026E+01  5.0506E-01   6.1521E+01  0.000E+00  0.000E+00  0.000E+00  1.08397E+03  1.549E+00  1.850E+01  1.110E-01  1.516E+00
   1    3    4     1     4    6.1521E+01  4.6511E-01   6.1056E+01  0.000E+00  0.000E+00  0.000E+00  1.07895E+03  1.543E+00  1.845E+01  1.024E-01  1.514E+00
   1    4    5     2     1    5.9056E+01  3.9145E-01   5.8665E+01  0.000E+00  0.000E+00  0.000E+00  1.07395E+03  2.019E+00  1.200E+01  7.800E-02  1.673E+00
   1    5    6     2     2    5.8665E+01  3.0069E-01   5.8364E+01  0.000E+00  0.000E+00  0.000E+00  1.06852E+03  2.011E+00  1.200E+01  6.000E-02  1.670E+00
   1    6    6     2     3    5.8364E+01  3.0031E-01   5.8064E+01  0.000E+00  0.000E+00  0.000E+00  1.06380E+03  2.005E+00  1.200E+01  6.000E-02  1.668E+00
   1    7    6     2     4    5.8064E+01  2.9994E-01   5.7764E+01  0.000E+00  0.000E+00  0.000E+00  1.05907E+03  1.999E+00  1.200E+01  6.000E-02  1.666E+00
   1    8    6     2     5    5.7764E+01  2.9957E-01   5.7464E+01  0.000E+00  0.000E+00  0.000E+00  1.05435E+03  1.993E+00  1.200E+01  6.000E-02  1.664E+00
   1    3    5     3     1    2.0000E+00  2.8252E-01   1.7175E+00  0.000E+00  0.000E+00  0.000E+00  1.07555E+03  1.909E+00  9.636E+00  7.227E-02  1.955E+00
   1    3    6     3     2    1.7175E+00  2.4905E-01   1.4684E+00  0.000E+00  0.000E+00  0.000E+00  1.07264E+03  1.727E+00  8.909E+00  6.682E-02  1.864E+00
   1    3    7     3     3    1.4684E+00  1.9718E-01   1.2712E+00  0.000E+00  0.000E+00  0.000E+00  1.06987E+03  1.555E+00  8.218E+00  5.547E-02  1.777E+00
   1    4    8     3     4    1.2712E+00  2.2567E-01   1.0456E+00  0.000E+00  0.000E+00  0.000E+00  1.06682E+03  1.364E+00  7.455E+00  6.709E-02  1.682E+00
   1    5    8     3     5    1.0456E+00  1.5790E-01   8.8768E-01  0.000E+00  0.000E+00  0.000E+00  1.06362E+03  1.164E+00  6.655E+00  4.991E-02  1.582E+00
   1    6    8     3     6    8.8768E-01  5.5980E-02   8.3170E-01  0.000E+00  0.000E+00  0.000E+00  1.06158E+03  1.036E+00  6.145E+00  1.844E-02  1.518E+00
   1    5   10     4     1    1.0000E+01  9.0919E-02   9.9091E+00  0.000E+00  0.000E+00  0.000E+00  1.07836E+03  6.368E-01  1.000E+01  2.500E-02  1.212E+00
   1    5    9     4     2    9.9091E+00  1.8158E-01   9.7275E+00  0.000E+00  0.000E+00  0.000E+00  1.07154E+03  6.315E-01  1.000E+01  5.000E-02  1.211E+00
   1    6    8     4     3    9.7275E+00  1.2689E-01   9.6006E+00  0.000E+00  0.000E+00  0.000E+00  1.06381E+03  6.256E-01  1.000E+01  3.500E-02  1.209E+00
   1    6    8     5     1    1.0432E+01  2.2686E-01   1.0205E+01  0.000E+00  0.000E+00  0.000E+00  1.05868E+03  6.790E-01  1.542E+01  6.166E-02  1.226E+00
   1    7    7     5     2    1.0205E+01  2.7894E-01   9.9265E+00  0.000E+00  0.000E+00  0.000E+00  1.05417E+03  6.732E-01  1.519E+01  7.594E-02  1.224E+00
   1    8    7     5     3    9.9265E+00  1.9221E-01   9.7343E+00  0.000E+00  0.000E+00  0.000E+00  1.04992E+03  6.676E-01  1.497E+01  5.241E-02  1.223E+00
   1    8    6     5     4    9.7343E+00  1.3577E-01   9.5985E+00  0.000E+00  0.000E+00  0.000E+00  1.04691E+03  6.637E-01  1.482E+01  3.706E-02  1.221E+00
   1    9    6     6     1    6.7063E+01  3.1225E-01   6.6751E+01  0.000E+00  0.000E+00  0.000E+00  1.04493E+03  2.204E+00  1.200E+01  6.000E-02  1.735E+00
   1   10    7     6     2    6.6751E+01  3.1188E-01   6.6439E+01  0.000E+00  0.000E+00  0.000E+00  1.04038E+03  2.198E+00  1.200E+01  6.000E-02  1.733E+00
   1   11    7     6     3    6.6439E+01  3.1151E-01   6.6127E+01  0.000E+00  0.000E+00  0.000E+00  1.03583E+03  2.192E+00  1.200E+01  6.000E-02  1.731E+00
   1   12    7     6     4    6.6127E+01  3.1114E-01   6.5816E+01  0.000E+00  0.000E+00  0.000E+00  1.03128E+03  2.186E+00  1.200E+01  6.000E-02  1.729E+00
   1   13    7     6     5    6.5816E+01  2.3712E-02   6.5792E+01  0.000E+00  0.000E+00  0.000E+00  1.02809E+03  2.182E+00  1.200E+01  2.400E-02  3.293E-01
   1   14    9     7     1    1.5000E+02  1.3312E+00   1.4867E+02  0.000E+00  0.000E+00  0.000E+00  1.03987E+03  2.288E+00  5.529E+01  5.593E-01  7.934E-01
   1   13    8     7     2    1.4867E+02  1.8244E+00   1.4684E+02  0.000E+00  0.000E+00  0.000E+00  1.03478E+03  2.279E+00  5.526E+01  6.148E-01  9.892E-01
   1   13    7     7     3    1.4684E+02  1.4445E+00   1.4540E+02  0.000E+00  0.000E+00  0.000E+00  1.02969E+03  2.271E+00  5.522E+01  5.585E-01  8.622E-01
   1   13    6     8     1    2.1119E+02  1.0617E+00   2.1013E+02  0.000E+00  0.000E+00  0.000E+00  1.02507E+03  3.199E+00  4.639E+01  4.727E-01  7.486E-01
   1   13    5     8     2    2.1013E+02  2.5353E-01   2.0988E+02  0.000E+00  0.000E+00  0.000E+00  1.01882E+03  3.196E+00  4.634E+01  4.722E-01  1.790E-01
   1   13    4     8     3    2.0988E+02 -2.1957E+00   2.1207E+02  0.000E+00  0.000E+00  0.000E+00  1.01258E+03  3.201E+00  4.642E+01  4.730E+00 -1.547E-01
   1   13    3     8     4    2.1207E+02 -3.4593E+00   2.1553E+02  0.000E+00  0.000E+00  0.000E+00  1.00634E+03  3.217E+00  4.665E+01  4.754E+00 -2.426E-01
   1   13    2     8     5    2.1553E+02 -2.5501E+00   2.1808E+02  0.000E+00  0.000E+00  0.000E+00  1.00011E+03  3.234E+00  4.689E+01  4.779E+00 -1.779E-01
   1   13    1     8     6    2.1808E+02 -2.0016E+00   2.2008E+02  0.000E+00  0.000E+00  0.000E+00  9.95122E+02  3.247E+00  4.708E+01  2.878E+00 -2.318E-01





UNSATURATED ZONE PACKAGE VOLUMETRIC BUDGET FOR  TIME STEP    30 STRESS PERIOD   18
  ------------------------------------------------------------------------------



     CUMULATIVE VOLUMES      L**3       RATES FOR THIS TIME STEP      L**3/T
     ------------------                 ------------------------

           IN:                                      IN:
           ---                                      ---
        INFILTRATION =   694308871.1726          INFILTRATION =          11.6075

          OUT:                                     OUT:
          ----                                     ----
              UZF ET =   568230780.5680                UZF ET =          11.6075
        UZF RECHARGE =    73804203.4082          UZF RECHARGE =       0.0000E+00

            IN - OUT =    52273887.1964              IN - OUT =      -3.5763E-07

          STORAGE:                                 STORAGE:
          --------                                 --------
      STORAGE CHANGE =    52275396.0246        STORAGE CHANGE =      -2.8635E-07

 PERCENT DISCREPANCY IS DIFFERENCE BETWEEN IN-OUT MINUS CHANGE IN STORAGE
 DIVIDED BY THE AVERAGE OF IN AND OUT TIMES 100

 PERCENT DISCREPANCY =          -0.00     PERCENT DISCREPANCY =           0.00






1
  VOLUMETRIC BUDGET FOR AGRICULTURAL FIELDS AT TIME STEP   30, STRESS PERIOD  18
  ------------------------------------------------------------------------------

     CUMULATIVE VOLUMES      L**3       RATES FOR THIS TIME STEP      L**3/T
     ------------------                 ------------------------

           IN:                                      IN:
           ---                                      ---
               AG WELLS  =   497176320.0000                 AG WELLS  =           7.2000
      DIVERSION SEGMENTS =           0.0000        DIVERSION SEGMENTS =           0.0000
           GW IRRIGATION =           0.0000             GW IRRIGATION =           0.0000
           SW IRRIGATION =           0.0000             SW IRRIGATION =           0.0000
        SYSTEM LOSSES GW =           0.0000          SYSTEM LOSSES GW =           0.0000
        SYSTEM LOSSES SW =           0.0000          SYSTEM LOSSES SW =           0.0000

                TOTAL IN =   497176320.0000                  TOTAL IN =           7.2000

          OUT:                                     OUT:
          ----                                     ----
               AG WELLS  =           0.0000                 AG WELLS  =           0.0000
      DIVERSION SEGMENTS =           0.0000        DIVERSION SEGMENTS =           0.0000
           GW IRRIGATION =   497176320.0000             GW IRRIGATION =           7.2000
           SW IRRIGATION =           0.0000             SW IRRIGATION =           0.0000
        SYSTEM LOSSES GW =           0.0000          SYSTEM LOSSES GW =           0.0000
        SYSTEM LOSSES SW =           0.0000          SYSTEM LOSSES SW =           0.0000

               TOTAL OUT =   497176320.0000                 TOTAL OUT =           7.2000

                IN - OUT =           0.0000                  IN - OUT =           0.0000

     PERCENT DISCREPANCY =           0.00         PERCENT DISCREPANCY =           0.00



1
  VOLUMETRIC BUDGET FOR ENTIRE MODEL AT END OF TIME STEP   30, STRESS PERIOD  18
  ------------------------------------------------------------------------------

     CUMULATIVE VOLUMES      L**3       RATES FOR THIS TIME STEP      L**3/T
     ------------------                 ------------------------

           IN:                                      IN:
           ---                                      ---
             STORAGE     =   651225536.0000               STORAGE     =           5.2867
       CONSTANT HEAD     =           0.0000         CONSTANT HEAD     =           0.0000
     HEAD DEP BOUNDS     =    12785420.0000       HEAD DEP BOUNDS     =           0.2854
      STREAM LEAKAGE     =   562011200.0000        STREAM LEAKAGE     =          13.1239
        UZF RECHARGE     =    73804200.0000          UZF RECHARGE     =           0.0000
               GW ET     =           0.0000                 GW ET     =           0.0000
     SURFACE LEAKAGE     =           0.0000       SURFACE LEAKAGE     =           0.0000
           AG WELLS      =           0.0000             AG WELLS      =           0.0000

                TOTAL IN =  1299826304.0000                  TOTAL IN =          18.6961

          OUT:                                     OUT:
          ----                                     ----
             STORAGE     =   311567744.0000               STORAGE     =           0.7283
       CONSTANT HEAD     =           0.0000         CONSTANT HEAD     =           0.0000
     HEAD DEP BOUNDS     =    13199535.0000       HEAD DEP BOUNDS     =           0.2971
      STREAM LEAKAGE     =   462803296.0000        STREAM LEAKAGE     =          10.2067
        UZF RECHARGE     =           0.0000          UZF RECHARGE     =           0.0000
               GW ET     =    15078963.0000                 GW ET     =           0.2639
     SURFACE LEAKAGE     =           0.0000       SURFACE LEAKAGE     =           0.0000
           AG WELLS      =   497176320.0000             AG WELLS      =           7.2000

               TOTAL OUT =  1299825920.0000                 TOTAL OUT =          18.6960

                IN - OUT =         384.0000                  IN - OUT =       6.8665E-05

     PERCENT DISCREPANCY =           0.00         PERCENT DISCREPANCY =           0.00






         TIME SUMMARY AT END OF TIME STEP   30 IN STRESS PERIOD   18
                    SECONDS     MINUTES      HOURS       DAYS        YEARS
                    -----------------------------------------------------------
   TIME STEP LENGTH  87667.      1461.1      24.352      1.0147     2.77799E-03
 STRESS PERIOD TIME 2.63000E+06  43833.      730.56      30.440     8.33397E-02
         TOTAL TIME 4.47965E+07 7.46608E+05  12443.      518.48      1.4195    
1
1
                            STRESS PERIOD NO.   19, LENGTH =   2630000.    
                            -----------------------------------------------

                              NUMBER OF TIME STEPS =    30

                               MULTIPLIER FOR DELT =     1.000

                            INITIAL TIME STEP SIZE =   87666.66    

 REUSING NON-PARAMETER GHB CELLS FROM LAST STRESS PERIOD

      2 GHB CELLS

 REUSING STREAM SEGMENT DATA FROM LAST STRESS PERIOD



            AREAL INFILTRATION RATE
 READING ON UNIT   19 WITH FORMAT: (10F4.0)            

            1           2           3           4           5           6           7           8           9          10
 ........................................................................................................................
   1   1.2000E-09   0.000       0.000       0.000       0.000       0.000       0.000       0.000       0.000       0.000    
   2   2.1000E-09  2.0000E-09  8.0000E-10  8.5000E-09   0.000       0.000       0.000       0.000       0.000       0.000    
   3   5.0000E-10  1.1000E-09  8.8000E-09  5.5000E-09   0.000       0.000       0.000       0.000       0.000       0.000    
   4   8.5000E-09  1.1000E-09  1.1000E-09  1.1000E-09  2.0000E-09   0.000       0.000       0.000       0.000       0.000    
   5   8.5000E-09  1.1000E-09  1.1000E-09  1.1000E-09  1.1000E-09   0.000       0.000       0.000       0.000       0.000    
   6   8.5000E-09  5.2000E-09  2.1000E-09  1.1000E-09  1.5000E-09   0.000       0.000       0.000       0.000       0.000    
   7   8.5000E-09  5.2000E-09  2.1000E-09  1.2000E-09  2.0000E-09   0.000       0.000       0.000       0.000       0.000    
   8   5.0000E-10  5.2000E-09  2.1000E-09  1.2000E-09  5.0000E-09   0.000       0.000       0.000       0.000       0.000    
   9   5.0000E-10  5.2000E-09  2.1000E-09  1.2000E-09  5.0000E-09   0.000       0.000       0.000       0.000       0.000    
  10   5.0000E-10  5.2000E-09  2.1000E-09  1.2000E-09  5.8000E-09   0.000       0.000       0.000       0.000       0.000    
  11   1.0000E-10  1.1000E-09  1.1000E-09  1.2000E-09  5.0000E-09   0.000       0.000       0.000       0.000       0.000    
  12   1.1000E-09  1.1000E-09  1.1000E-09  1.1000E-09  2.0000E-09   0.000       0.000       0.000       0.000       0.000    
  13   1.1000E-09  2.2000E-09  2.2000E-09  2.1000E-09  1.0000E-09   0.000       0.000       0.000       0.000       0.000    
  14   2.0000E-10  5.5000E-09  5.5000E-09  5.2000E-09  1.0000E-09   0.000       0.000       0.000       0.000       0.000    
  15    0.000      8.8000E-09  8.8000E-09   0.000       0.000       0.000       0.000       0.000       0.000       0.000    

                  ET RATE =  1.500000E-07

 USING ET EXTINCTION DEPTH FROM PREVIOUS STRESS PERIOD. CURRENT PERIOD IS:      19

 USING EXTINCTION WATER CONTENT FROM PREVIOUS STRESS PERIOD. CURRENT PERIOD IS:      19

 USING AIR ENTRY PRESSURE FROM PREVIOUS STRESS PERIOD. CURRENT PERIOD IS:      19

 USING ROOT PRESSURE HEAD FROM PREVIOUS STRESS PERIOD. CURRENT PERIOD IS:      19

 USING ROOT ACTIVITY FROM PREVIOUS STRESS PERIOD. CURRENT PERIOD IS:      19

 PROCESSING AG STRESS PERIOD DATA

 READING AG STRESS PERIOD DATA

 READING IRRIGATION WELL

 END PROCESSING AG STRESS PERIOD DATA OPTIONS
 
 SOLVING FOR HEAD 
                                                   Max.-Head-Change                         Max.-Flux-Residual
  Residual-Control   Outer-Iter.   Inner-Iter.     Column Row Layer    Maximum-Head-Change  Column Row Layer    Maximum-Flux-Residual          L2-NORM 
          0                 1           2             4    7     1      -0.5796459062E-01       4    7    1        -0.3030677543E+01      0.7071276231E+01
          0                 2           2             4    7     1       0.5636581759E-02       4    7    1         0.3030657021E+00      0.6403040687E+00
          0                 3           2             4    7     1      -0.3838349523E-03       4    7    1        -0.2121486507E-01      0.4481208642E-01
          0                 4           1             4    7     1       0.1526894663E-04       4    7    1         0.8674506951E-03      0.1831682040E-02

    ------------------------------------------------
       NWT REQUIRED            4 OUTER ITERATIONS 
       AND A TOTAL OF          7 INNER ITERATIONS.
    ------------------------------------------------

 OUTPUT CONTROL FOR STRESS PERIOD   19   TIME STEP    1
    PRINT BUDGET
    SAVE BUDGET
 UBDSV1 SAVING "         STORAGE" ON UNIT 102 AT TIME STEP  1, STRESS PERIOD  19
 UBDSV2 SAVING "   CONSTANT HEAD" ON UNIT 102 AT TIME STEP  1, STRESS PERIOD  19
 UBDSV1 SAVING "FLOW RIGHT FACE " ON UNIT 102 AT TIME STEP  1, STRESS PERIOD  19
 UBDSV1 SAVING "FLOW FRONT FACE " ON UNIT 102 AT TIME STEP  1, STRESS PERIOD  19

  HEAD DEP BOUNDS   PERIOD   19   STEP     1
 BOUNDARY      1   LAYER   1   ROW    13   COL     1   RATE   -0.296994    
 BOUNDARY      2   LAYER   1   ROW    14   COL     9   RATE    0.285447    



 STREAM LISTING     PERIOD     19   STEP        1

 LAYER ROW COL. STREAM  RCH.  FLOW INTO     FLOW TO   FLOW OUT OF   OVRLND.     DIRECT     STREAM       STREAM     STREAM     STREAM   STREAMBED  STREAMBED
                SEG.NO.  NO.  STRM. RCH.    AQUIFER    STRM. RCH.    RUNOFF     PRECIP       ET          HEAD       DEPTH      WIDTH   CONDCTNC.   GRADIENT

   1    1    1     1     1    5.8202E+01  3.6567E-01   5.7837E+01  0.000E+00  0.000E+00  0.000E+00  1.09455E+03  1.503E+00  1.804E+01  8.120E-02  1.501E+00
   1    2    2     1     2    5.7837E+01  5.6626E-01   5.7270E+01  0.000E+00  0.000E+00  0.000E+00  1.08956E+03  1.498E+00  1.799E+01  1.259E-01  1.499E+00
   1    3    3     1     3    5.7270E+01  4.8288E-01   5.6788E+01  0.000E+00  0.000E+00  0.000E+00  1.08391E+03  1.491E+00  1.792E+01  1.075E-01  1.497E+00
   1    3    4     1     4    5.6788E+01  4.4463E-01   5.6343E+01  0.000E+00  0.000E+00  0.000E+00  1.07889E+03  1.485E+00  1.786E+01  9.913E-02  1.495E+00
   1    4    5     2     1    5.4343E+01  3.8376E-01   5.3959E+01  0.000E+00  0.000E+00  0.000E+00  1.07385E+03  1.920E+00  1.200E+01  7.800E-02  1.640E+00
   1    5    6     2     2    5.3959E+01  2.9477E-01   5.3664E+01  0.000E+00  0.000E+00  0.000E+00  1.06842E+03  1.913E+00  1.200E+01  6.000E-02  1.638E+00
   1    6    6     2     3    5.3664E+01  2.9439E-01   5.3370E+01  0.000E+00  0.000E+00  0.000E+00  1.06370E+03  1.907E+00  1.200E+01  6.000E-02  1.636E+00
   1    7    6     2     4    5.3370E+01  2.9401E-01   5.3076E+01  0.000E+00  0.000E+00  0.000E+00  1.05898E+03  1.900E+00  1.200E+01  6.000E-02  1.633E+00
   1    8    6     2     5    5.3076E+01  2.9364E-01   5.2782E+01  0.000E+00  0.000E+00  0.000E+00  1.05425E+03  1.894E+00  1.200E+01  6.000E-02  1.631E+00
   1    3    5     3     1    2.0000E+00  2.8252E-01   1.7175E+00  0.000E+00  0.000E+00  0.000E+00  1.07555E+03  1.909E+00  9.636E+00  7.227E-02  1.955E+00
   1    3    6     3     2    1.7175E+00  2.4905E-01   1.4684E+00  0.000E+00  0.000E+00  0.000E+00  1.07264E+03  1.727E+00  8.909E+00  6.682E-02  1.864E+00
   1    3    7     3     3    1.4684E+00  1.9718E-01   1.2712E+00  0.000E+00  0.000E+00  0.000E+00  1.06987E+03  1.555E+00  8.218E+00  5.547E-02  1.777E+00
   1    4    8     3     4    1.2712E+00  2.2567E-01   1.0456E+00  0.000E+00  0.000E+00  0.000E+00  1.06682E+03  1.364E+00  7.455E+00  6.709E-02  1.682E+00
   1    5    8     3     5    1.0456E+00  1.5790E-01   8.8768E-01  0.000E+00  0.000E+00  0.000E+00  1.06362E+03  1.164E+00  6.655E+00  4.991E-02  1.582E+00
   1    6    8     3     6    8.8768E-01  5.5980E-02   8.3170E-01  0.000E+00  0.000E+00  0.000E+00  1.06158E+03  1.036E+00  6.145E+00  1.844E-02  1.518E+00
   1    5   10     4     1    1.0000E+01  9.0919E-02   9.9091E+00  0.000E+00  0.000E+00  0.000E+00  1.07836E+03  6.368E-01  1.000E+01  2.500E-02  1.212E+00
   1    5    9     4     2    9.9091E+00  1.8158E-01   9.7275E+00  0.000E+00  0.000E+00  0.000E+00  1.07154E+03  6.315E-01  1.000E+01  5.000E-02  1.211E+00
   1    6    8     4     3    9.7275E+00  1.2689E-01   9.6006E+00  0.000E+00  0.000E+00  0.000E+00  1.06381E+03  6.256E-01  1.000E+01  3.500E-02  1.209E+00
   1    6    8     5     1    1.0432E+01  2.2686E-01   1.0205E+01  0.000E+00  0.000E+00  0.000E+00  1.05868E+03  6.790E-01  1.542E+01  6.166E-02  1.226E+00
   1    7    7     5     2    1.0205E+01  2.7894E-01   9.9265E+00  0.000E+00  0.000E+00  0.000E+00  1.05417E+03  6.732E-01  1.519E+01  7.594E-02  1.224E+00
   1    8    7     5     3    9.9265E+00  1.9221E-01   9.7343E+00  0.000E+00  0.000E+00  0.000E+00  1.04992E+03  6.676E-01  1.497E+01  5.241E-02  1.223E+00
   1    8    6     5     4    9.7343E+00  1.3577E-01   9.5985E+00  0.000E+00  0.000E+00  0.000E+00  1.04691E+03  6.637E-01  1.482E+01  3.706E-02  1.221E+00
   1    9    6     6     1    6.2381E+01  3.0662E-01   6.2074E+01  0.000E+00  0.000E+00  0.000E+00  1.04484E+03  2.110E+00  1.200E+01  6.000E-02  1.703E+00
   1   10    7     6     2    6.2074E+01  3.0625E-01   6.1768E+01  0.000E+00  0.000E+00  0.000E+00  1.04029E+03  2.104E+00  1.200E+01  6.000E-02  1.701E+00
   1   11    7     6     3    6.1768E+01  3.0587E-01   6.1462E+01  0.000E+00  0.000E+00  0.000E+00  1.03573E+03  2.098E+00  1.200E+01  6.000E-02  1.699E+00
   1   12    7     6     4    6.1462E+01  3.0550E-01   6.1157E+01  0.000E+00  0.000E+00  0.000E+00  1.03118E+03  2.092E+00  1.200E+01  6.000E-02  1.697E+00
   1   13    7     6     5    6.1157E+01  2.1463E-02   6.1135E+01  0.000E+00  0.000E+00  0.000E+00  1.02800E+03  2.088E+00  1.200E+01  2.400E-02  2.981E-01
   1   14    9     7     1    1.5000E+02  1.3312E+00   1.4867E+02  0.000E+00  0.000E+00  0.000E+00  1.03987E+03  2.288E+00  5.529E+01  5.593E-01  7.934E-01
   1   13    8     7     2    1.4867E+02  1.8245E+00   1.4684E+02  0.000E+00  0.000E+00  0.000E+00  1.03478E+03  2.279E+00  5.526E+01  6.148E-01  9.892E-01
   1   13    7     7     3    1.4684E+02  1.4447E+00   1.4540E+02  0.000E+00  0.000E+00  0.000E+00  1.02969E+03  2.271E+00  5.522E+01  5.585E-01  8.623E-01
   1   13    6     8     1    2.0653E+02  1.0408E+00   2.0549E+02  0.000E+00  0.000E+00  0.000E+00  1.02505E+03  3.173E+00  4.601E+01  4.688E-01  7.400E-01
   1   13    5     8     2    2.0549E+02  2.3933E-01   2.0525E+02  0.000E+00  0.000E+00  0.000E+00  1.01879E+03  3.169E+00  4.595E+01  4.683E-01  1.704E-01
   1   13    4     8     3    2.0525E+02 -2.2797E+00   2.0753E+02  0.000E+00  0.000E+00  0.000E+00  1.01255E+03  3.175E+00  4.604E+01  4.691E+00 -1.620E-01
   1   13    3     8     4    2.0753E+02 -3.5221E+00   2.1106E+02  0.000E+00  0.000E+00  0.000E+00  1.00632E+03  3.192E+00  4.628E+01  4.716E+00 -2.489E-01
   1   13    2     8     5    2.1106E+02 -2.6392E+00   2.1370E+02  0.000E+00  0.000E+00  0.000E+00  1.00008E+03  3.209E+00  4.653E+01  4.742E+00 -1.855E-01
   1   13    1     8     6    2.1370E+02 -2.0518E+00   2.1575E+02  0.000E+00  0.000E+00  0.000E+00  9.95097E+02  3.222E+00  4.672E+01  2.857E+00 -2.394E-01



 UBDSV3 SAVING "           GW ET" ON UNIT  61 AT TIME STEP  1, STRESS PERIOD  19
 UBDSV3 SAVING "    UZF RECHARGE" ON UNIT  61 AT TIME STEP  1, STRESS PERIOD  19
 UBDSV3 SAVING " SURFACE LEAKAGE" ON UNIT  61 AT TIME STEP  1, STRESS PERIOD  19
 UBDSV3 SAVING "       HORT+DUNN" ON UNIT  61 AT TIME STEP  1, STRESS PERIOD  19
 UBDSV3 SAVING "  STORAGE CHANGE" ON UNIT  61 AT TIME STEP  1, STRESS PERIOD  19


UNSATURATED ZONE PACKAGE VOLUMETRIC BUDGET FOR  TIME STEP     1 STRESS PERIOD   19
  ------------------------------------------------------------------------------



     CUMULATIVE VOLUMES      L**3       RATES FOR THIS TIME STEP      L**3/T
     ------------------                 ------------------------

           IN:                                      IN:
           ---                                      ---
        INFILTRATION =   696629838.1794          INFILTRATION =          26.4749

          OUT:                                     OUT:
          ----                                     ----
              UZF ET =   570563371.3873                UZF ET =          26.6075
        UZF RECHARGE =    73804203.4082          UZF RECHARGE =       0.0000E+00

            IN - OUT =    52262263.3839              IN - OUT =          -0.1326

          STORAGE:                                 STORAGE:
          --------                                 --------
      STORAGE CHANGE =    52263772.1977        STORAGE CHANGE =          -0.1326

 PERCENT DISCREPANCY IS DIFFERENCE BETWEEN IN-OUT MINUS CHANGE IN STORAGE
 DIVIDED BY THE AVERAGE OF IN AND OUT TIMES 100

 PERCENT DISCREPANCY =          -0.00     PERCENT DISCREPANCY =           0.00






 

            AG WELLS      PERIOD   19   STEP   1
 AG WELL      1   LAYER   1   ROW     6   COL     4   RATE    -3.71890    
 AG WELL      2   LAYER   1   ROW     6   COL     5   RATE    -3.66759    
 AG WELL      3   LAYER   1   ROW     7   COL     4   RATE    -3.71619    
 AG WELL      4   LAYER   1   ROW     7   COL     5   RATE    -3.69997    
 AG WELL      5   LAYER   1   ROW     8   COL     4   RATE    -3.71619    
 AG WELL      6   LAYER   1   ROW     8   COL     5   RATE    -3.54858    
 
 

        GW IRRIGATION     PERIOD   19   STEP   1
 AG WELL      1   ROW     6   COL     4   RATE     3.71890    
 AG WELL      2   ROW     6   COL     5   RATE     3.66759    
 AG WELL      3   ROW     7   COL     4   RATE     3.71619    
 AG WELL      4   ROW     7   COL     5   RATE     3.69997    
 AG WELL      5   ROW     8   COL     4   RATE     3.71619    
 AG WELL      6   ROW     8   COL     5   RATE     3.54858    
 
1
  VOLUMETRIC BUDGET FOR AGRICULTURAL FIELDS AT TIME STEP    1, STRESS PERIOD  19
  ------------------------------------------------------------------------------

     CUMULATIVE VOLUMES      L**3       RATES FOR THIS TIME STEP      L**3/T
     ------------------                 ------------------------

           IN:                                      IN:
           ---                                      ---
               AG WELLS  =   499110912.0000                 AG WELLS  =          22.0674
      DIVERSION SEGMENTS =           0.0000        DIVERSION SEGMENTS =           0.0000
           GW IRRIGATION =           0.0000             GW IRRIGATION =           0.0000
           SW IRRIGATION =           0.0000             SW IRRIGATION =           0.0000
        SYSTEM LOSSES GW =           0.0000          SYSTEM LOSSES GW =           0.0000
        SYSTEM LOSSES SW =           0.0000          SYSTEM LOSSES SW =           0.0000

                TOTAL IN =   499110912.0000                  TOTAL IN =          22.0674

          OUT:                                     OUT:
          ----                                     ----
               AG WELLS  =           0.0000                 AG WELLS  =           0.0000
      DIVERSION SEGMENTS =           0.0000        DIVERSION SEGMENTS =           0.0000
           GW IRRIGATION =   499110912.0000             GW IRRIGATION =          22.0674
           SW IRRIGATION =           0.0000             SW IRRIGATION =           0.0000
        SYSTEM LOSSES GW =           0.0000          SYSTEM LOSSES GW =           0.0000
        SYSTEM LOSSES SW =           0.0000          SYSTEM LOSSES SW =           0.0000

               TOTAL OUT =   499110912.0000                 TOTAL OUT =          22.0674

                IN - OUT =           0.0000                  IN - OUT =           0.0000

     PERCENT DISCREPANCY =           0.00         PERCENT DISCREPANCY =           0.00



1
  VOLUMETRIC BUDGET FOR ENTIRE MODEL AT END OF TIME STEP    1, STRESS PERIOD  19
  ------------------------------------------------------------------------------

     CUMULATIVE VOLUMES      L**3       RATES FOR THIS TIME STEP      L**3/T
     ------------------                 ------------------------

           IN:                                      IN:
           ---                                      ---
             STORAGE     =   653065920.0000               STORAGE     =          20.9929
       CONSTANT HEAD     =           0.0000         CONSTANT HEAD     =           0.0000
     HEAD DEP BOUNDS     =    12810444.0000       HEAD DEP BOUNDS     =           0.2854
      STREAM LEAKAGE     =   563146304.0000        STREAM LEAKAGE     =          12.9476
        UZF RECHARGE     =    73804200.0000          UZF RECHARGE     =           0.0000
               GW ET     =           0.0000                 GW ET     =           0.0000
     SURFACE LEAKAGE     =           0.0000       SURFACE LEAKAGE     =           0.0000
           AG WELLS      =           0.0000             AG WELLS      =           0.0000

                TOTAL IN =  1302826880.0000                  TOTAL IN =          34.2260

          OUT:                                     OUT:
          ----                                     ----
             STORAGE     =   311623328.0000               STORAGE     =           0.6341
       CONSTANT HEAD     =           0.0000         CONSTANT HEAD     =           0.0000
     HEAD DEP BOUNDS     =    13225571.0000       HEAD DEP BOUNDS     =           0.2970
      STREAM LEAKAGE     =   463723168.0000        STREAM LEAKAGE     =          10.4929
        UZF RECHARGE     =           0.0000          UZF RECHARGE     =           0.0000
               GW ET     =    15143371.0000                 GW ET     =           0.7347
     SURFACE LEAKAGE     =           0.0000       SURFACE LEAKAGE     =           0.0000
           AG WELLS      =   499110912.0000             AG WELLS      =          22.0674

               TOTAL OUT =  1302826240.0000                 TOTAL OUT =          34.2261

                IN - OUT =         640.0000                  IN - OUT =      -6.4850E-05

     PERCENT DISCREPANCY =           0.00         PERCENT DISCREPANCY =          -0.00






         TIME SUMMARY AT END OF TIME STEP    1 IN STRESS PERIOD   19
                    SECONDS     MINUTES      HOURS       DAYS        YEARS
                    -----------------------------------------------------------
   TIME STEP LENGTH  87667.      1461.1      24.352      1.0147     2.77799E-03
 STRESS PERIOD TIME  87667.      1461.1      24.352      1.0147     2.77799E-03
         TOTAL TIME 4.48841E+07 7.48069E+05  12468.      519.49      1.4223    
1
 
 SOLVING FOR HEAD 
                                                   Max.-Head-Change                         Max.-Flux-Residual
  Residual-Control   Outer-Iter.   Inner-Iter.     Column Row Layer    Maximum-Head-Change  Column Row Layer    Maximum-Flux-Residual          L2-NORM 
          0                 1           2             4    7     1      -0.5765468379E-01       4    7    1        -0.3015668606E+01      0.6996460301E+01
          0                 2           2             4    7     1       0.5606202956E-02       4    7    1         0.3015472288E+00      0.6345764100E+00
          0                 3           2             4    7     1      -0.3817620964E-03       4    7    1        -0.2110833507E-01      0.4441350463E-01
          0                 4           1             4    7     1       0.1519060299E-04       4    7    1         0.8633320165E-03      0.1815826401E-02

    ------------------------------------------------
       NWT REQUIRED            4 OUTER ITERATIONS 
       AND A TOTAL OF          7 INNER ITERATIONS.
    ------------------------------------------------

 NO OUTPUT CONTROL FOR STRESS PERIOD   19   TIME STEP    2
 
 SOLVING FOR HEAD 
                                                   Max.-Head-Change                         Max.-Flux-Residual
  Residual-Control   Outer-Iter.   Inner-Iter.     Column Row Layer    Maximum-Head-Change  Column Row Layer    Maximum-Flux-Residual          L2-NORM 
          0                 1           2             4    7     1      -0.5725411784E-01       4    7    1        -0.2995772194E+01      0.6875213348E+01
          0                 2           2             4    7     1       0.5567197353E-02       4    7    1         0.2995574426E+00      0.6225036723E+00
          0                 3           2             4    7     1      -0.3791059792E-03       4    7    1        -0.2096905133E-01      0.4357035938E-01
          0                 4           1             4    7     1       0.1508491355E-04       4    7    1         0.8576352898E-03      0.1781454505E-02

    ------------------------------------------------
       NWT REQUIRED            4 OUTER ITERATIONS 
       AND A TOTAL OF          7 INNER ITERATIONS.
    ------------------------------------------------

 NO OUTPUT CONTROL FOR STRESS PERIOD   19   TIME STEP    3
 
 SOLVING FOR HEAD 
                                                   Max.-Head-Change                         Max.-Flux-Residual
  Residual-Control   Outer-Iter.   Inner-Iter.     Column Row Layer    Maximum-Head-Change  Column Row Layer    Maximum-Flux-Residual          L2-NORM 
          0                 1           2             4    7     1      -0.5683772455E-01       4    7    1        -0.2974960380E+01      0.6760796954E+01
          0                 2           2             4    7     1       0.5526691313E-02       4    7    1         0.2974761340E+00      0.6122149291E+00
          0                 3           2             4    7     1      -0.3763476852E-03       4    7    1        -0.2082336085E-01      0.4285148307E-01
          0                 4           1             4    7     1       0.1497516252E-04       4    7    1         0.8516765454E-03      0.1752225725E-02

    ------------------------------------------------
       NWT REQUIRED            4 OUTER ITERATIONS 
       AND A TOTAL OF          7 INNER ITERATIONS.
    ------------------------------------------------

 NO OUTPUT CONTROL FOR STRESS PERIOD   19   TIME STEP    4
 
 SOLVING FOR HEAD 
                                                   Max.-Head-Change                         Max.-Flux-Residual
  Residual-Control   Outer-Iter.   Inner-Iter.     Column Row Layer    Maximum-Head-Change  Column Row Layer    Maximum-Flux-Residual          L2-NORM 
          0                 1           2             4    7     1      -0.5640700824E-01       4    7    1        -0.2953318496E+01      0.6652459670E+01
          0                 2           2             4    7     1       0.5484793101E-02       4    7    1         0.2953118344E+00      0.6025277171E+00
          0                 3           2             4    7     1      -0.3734945870E-03       4    7    1        -0.2067186084E-01      0.4217446105E-01
          0                 4           1             4    7     1       0.1486163496E-04       4    7    1         0.8454801909E-03      0.1724644367E-02

    ------------------------------------------------
       NWT REQUIRED            4 OUTER ITERATIONS 
       AND A TOTAL OF          7 INNER ITERATIONS.
    ------------------------------------------------

 NO OUTPUT CONTROL FOR STRESS PERIOD   19   TIME STEP    5
 
 SOLVING FOR HEAD 
                                                   Max.-Head-Change                         Max.-Flux-Residual
  Residual-Control   Outer-Iter.   Inner-Iter.     Column Row Layer    Maximum-Head-Change  Column Row Layer    Maximum-Flux-Residual          L2-NORM 
          0                 1           2             4    7     1      -0.5596382448E-01       4    7    1        -0.2930948659E+01      0.6549499459E+01
          0                 2           2             4    7     1       0.5441682359E-02       4    7    1         0.2930747544E+00      0.5933502497E+00
          0                 3           2             4    7     1      -0.3705589177E-03       4    7    1        -0.2051526606E-01      0.4153270121E-01
          0                 4           1             4    7     1       0.1474482155E-04       4    7    1         0.8390754331E-03      0.1698480779E-02

    ------------------------------------------------
       NWT REQUIRED            4 OUTER ITERATIONS 
       AND A TOTAL OF          7 INNER ITERATIONS.
    ------------------------------------------------

 NO OUTPUT CONTROL FOR STRESS PERIOD   19   TIME STEP    6
 
 SOLVING FOR HEAD 
                                                   Max.-Head-Change                         Max.-Flux-Residual
  Residual-Control   Outer-Iter.   Inner-Iter.     Column Row Layer    Maximum-Head-Change  Column Row Layer    Maximum-Flux-Residual          L2-NORM 
          0                 1           2             4    7     1      -0.5550924798E-01       4    7    1        -0.2907910312E+01      0.6451372468E+01
          0                 2           2             4    7     1       0.5397463610E-02       4    7    1         0.2907708371E+00      0.5846265763E+00
          0                 3           2             4    7     1      -0.3675477958E-03       4    7    1        -0.2035399256E-01      0.4092258600E-01
          0                 4           1             4    7     1       0.1462500446E-04       4    7    1         0.8324793428E-03      0.1673447481E-02

    ------------------------------------------------
       NWT REQUIRED            4 OUTER ITERATIONS 
       AND A TOTAL OF          7 INNER ITERATIONS.
    ------------------------------------------------

 NO OUTPUT CONTROL FOR STRESS PERIOD   19   TIME STEP    7
 
 SOLVING FOR HEAD 
                                                   Max.-Head-Change                         Max.-Flux-Residual
  Residual-Control   Outer-Iter.   Inner-Iter.     Column Row Layer    Maximum-Head-Change  Column Row Layer    Maximum-Flux-Residual          L2-NORM 
          0                 1           2             4    7     1      -0.5504494779E-01       4    7    1        -0.2884295991E+01      0.6357626878E+01
          0                 2           2             4    7     1       0.5352299184E-02       4    7    1         0.2884093349E+00      0.5763109530E+00
          0                 3           2             4    7     1      -0.3644722726E-03       4    7    1        -0.2018868795E-01      0.4034083984E-01
          0                 4           1             4    7     1       0.1450262831E-04       4    7    1         0.8257183636E-03      0.1649762438E-02

    ------------------------------------------------
       NWT REQUIRED            4 OUTER ITERATIONS 
       AND A TOTAL OF          7 INNER ITERATIONS.
    ------------------------------------------------

 NO OUTPUT CONTROL FOR STRESS PERIOD   19   TIME STEP    8
 
 SOLVING FOR HEAD 
                                                   Max.-Head-Change                         Max.-Flux-Residual
  Residual-Control   Outer-Iter.   Inner-Iter.     Column Row Layer    Maximum-Head-Change  Column Row Layer    Maximum-Flux-Residual          L2-NORM 
          0                 1           2             4    7     1      -0.5457208919E-01       4    7    1        -0.2860170149E+01      0.6267877164E+01
          0                 2           2             4    7     1       0.5306302422E-02       4    7    1         0.2859966923E+00      0.5683656342E+00
          0                 3           2             4    7     1      -0.3613400710E-03       4    7    1        -0.2001980345E-01      0.3978493321E-01
          0                 4           1             4    7     1       0.1437799485E-04       4    7    1         0.8188109693E-03      0.1627038553E-02

    ------------------------------------------------
       NWT REQUIRED            4 OUTER ITERATIONS 
       AND A TOTAL OF          7 INNER ITERATIONS.
    ------------------------------------------------

 NO OUTPUT CONTROL FOR STRESS PERIOD   19   TIME STEP    9
 
 SOLVING FOR HEAD 
                                                   Max.-Head-Change                         Max.-Flux-Residual
  Residual-Control   Outer-Iter.   Inner-Iter.     Column Row Layer    Maximum-Head-Change  Column Row Layer    Maximum-Flux-Residual          L2-NORM 
          0                 1           2             4    7     1      -0.5409189015E-01       4    7    1        -0.2835600570E+01      0.6181821190E+01
          0                 2           2             4    7     1       0.5259591785E-02       4    7    1         0.2835396865E+00      0.5607603848E+00
          0                 3           2             4    7     1      -0.3581592555E-03       4    7    1        -0.1984781341E-01      0.3925282681E-01
          0                 4           1             4    7     1       0.1425142679E-04       4    7    1         0.8117765572E-03      0.1605290762E-02

    ------------------------------------------------
       NWT REQUIRED            4 OUTER ITERATIONS 
       AND A TOTAL OF          7 INNER ITERATIONS.
    ------------------------------------------------

 NO OUTPUT CONTROL FOR STRESS PERIOD   19   TIME STEP   10
 
 SOLVING FOR HEAD 
                                                   Max.-Head-Change                         Max.-Flux-Residual
  Residual-Control   Outer-Iter.   Inner-Iter.     Column Row Layer    Maximum-Head-Change  Column Row Layer    Maximum-Flux-Residual          L2-NORM 
          0                 1           2             4    7     1      -0.5360535628E-01       4    7    1        -0.2810643045E+01      0.6099181855E+01
          0                 2           2             4    7     1       0.5212265080E-02       4    7    1         0.2810438959E+00      0.5534682668E+00
          0                 3           2             4    7     1      -0.3549364869E-03       4    7    1        -0.1967310833E-01      0.3874252928E-01
          0                 4           1             4    7     1       0.1412318835E-04       4    7    1         0.8046311218E-03      0.1584350751E-02

    ------------------------------------------------
       NWT REQUIRED            4 OUTER ITERATIONS 
       AND A TOTAL OF          7 INNER ITERATIONS.
    ------------------------------------------------

 NO OUTPUT CONTROL FOR STRESS PERIOD   19   TIME STEP   11
 
 SOLVING FOR HEAD 
                                                   Max.-Head-Change                         Max.-Flux-Residual
  Residual-Control   Outer-Iter.   Inner-Iter.     Column Row Layer    Maximum-Head-Change  Column Row Layer    Maximum-Flux-Residual          L2-NORM 
          0                 1           2             4    7     1      -0.5311382060E-01       4    7    1        -0.2785371791E+01      0.6019726209E+01
          0                 2           2             4    7     1       0.5164451957E-02       4    7    1         0.2785167412E+00      0.5464664144E+00
          0                 3           2             4    7     1      -0.3516805957E-03       4    7    1        -0.1949620768E-01      0.3825253838E-01
          0                 4           1             4    7     1       0.1399363353E-04       4    7    1         0.7973958820E-03      0.1564343951E-02

    ------------------------------------------------
       NWT REQUIRED            4 OUTER ITERATIONS 
       AND A TOTAL OF          7 INNER ITERATIONS.
    ------------------------------------------------

 NO OUTPUT CONTROL FOR STRESS PERIOD   19   TIME STEP   12
 
 SOLVING FOR HEAD 
                                                   Max.-Head-Change                         Max.-Flux-Residual
  Residual-Control   Outer-Iter.   Inner-Iter.     Column Row Layer    Maximum-Head-Change  Column Row Layer    Maximum-Flux-Residual          L2-NORM 
          0                 1           2             4    7     1      -0.5261799167E-01       4    7    1        -0.2759826493E+01      0.5943242936E+01
          0                 2           2             4    7     1       0.5116221328E-02       4    7    1         0.2759621902E+00      0.5397346658E+00
          0                 3           2             4    7     1      -0.3483962709E-03       4    7    1        -0.1931738922E-01      0.3778141274E-01
          0                 4           1             4    7     1       0.1386294897E-04       4    7    1         0.7900821947E-03      0.1545132125E-02

    ------------------------------------------------
       NWT REQUIRED            4 OUTER ITERATIONS 
       AND A TOTAL OF          7 INNER ITERATIONS.
    ------------------------------------------------

 NO OUTPUT CONTROL FOR STRESS PERIOD   19   TIME STEP   13
 
 SOLVING FOR HEAD 
                                                   Max.-Head-Change                         Max.-Flux-Residual
  Residual-Control   Outer-Iter.   Inner-Iter.     Column Row Layer    Maximum-Head-Change  Column Row Layer    Maximum-Flux-Residual          L2-NORM 
          0                 1           2             4    7     1      -0.5211893014E-01       4    7    1        -0.2734065962E+01      0.5869553145E+01
          0                 2           2             4    7     1       0.5067676359E-02       4    7    1         0.2733861233E+00      0.5332561754E+00
          0                 3           2             4    7     1      -0.3450905394E-03       4    7    1        -0.1913706458E-01      0.3732795840E-01
          0                 4           1             4    7     1       0.1373141096E-04       4    7    1         0.7827069026E-03      0.1526590552E-02

    ------------------------------------------------
       NWT REQUIRED            4 OUTER ITERATIONS 
       AND A TOTAL OF          7 INNER ITERATIONS.
    ------------------------------------------------

 NO OUTPUT CONTROL FOR STRESS PERIOD   19   TIME STEP   14
 
 SOLVING FOR HEAD 
                                                   Max.-Head-Change                         Max.-Flux-Residual
  Residual-Control   Outer-Iter.   Inner-Iter.     Column Row Layer    Maximum-Head-Change  Column Row Layer    Maximum-Flux-Residual          L2-NORM 
          0                 1           2             4    7     1      -0.5161734840E-01       4    7    1        -0.2708130481E+01      0.5798474442E+01
          0                 2           2             4    7     1       0.5018886468E-02       4    7    1         0.2707925679E+00      0.5270136943E+00
          0                 3           2             4    7     1      -0.3417681236E-03       4    7    1        -0.1895551568E-01      0.3689104421E-01
          0                 4           1             4    7     1       0.1359920867E-04       4    7    1         0.7752815363E-03      0.1508721127E-02

    ------------------------------------------------
       NWT REQUIRED            4 OUTER ITERATIONS 
       AND A TOTAL OF          7 INNER ITERATIONS.
    ------------------------------------------------

 NO OUTPUT CONTROL FOR STRESS PERIOD   19   TIME STEP   15
 
 SOLVING FOR HEAD 
                                                   Max.-Head-Change                         Max.-Flux-Residual
  Residual-Control   Outer-Iter.   Inner-Iter.     Column Row Layer    Maximum-Head-Change  Column Row Layer    Maximum-Flux-Residual          L2-NORM 
          0                 1           2             4    7     1      -0.5111416719E-01       4    7    1        -0.2682071689E+01      0.5729852099E+01
          0                 2           2             4    7     1       0.4969945223E-02       4    7    1         0.2681866875E+00      0.5210042182E+00
          0                 3           2             4    7     1      -0.3384354054E-03       4    7    1        -0.1877310394E-01      0.3647041597E-01
          0                 4           1             4    7     1       0.1346659492E-04       4    7    1         0.7678208854E-03      0.1491460836E-02

    ------------------------------------------------
       NWT REQUIRED            4 OUTER ITERATIONS 
       AND A TOTAL OF          7 INNER ITERATIONS.
    ------------------------------------------------

 NO OUTPUT CONTROL FOR STRESS PERIOD   19   TIME STEP   16
 
 SOLVING FOR HEAD 
                                                   Max.-Head-Change                         Max.-Flux-Residual
  Residual-Control   Outer-Iter.   Inner-Iter.     Column Row Layer    Maximum-Head-Change  Column Row Layer    Maximum-Flux-Residual          L2-NORM 
          0                 1           2             4    7     1      -0.5060995601E-01       4    7    1        -0.2655922404E+01      0.5663446001E+01
          0                 2           2             4    7     1       0.4920896701E-02       4    7    1         0.2655717633E+00      0.5151799693E+00
          0                 3           2             4    7     1      -0.3350953822E-03       4    7    1        -0.1859005914E-01      0.3606274311E-01
          0                 4           1             4    7     1       0.1333369438E-04       4    7    1         0.7603343413E-03      0.1474837598E-02

    ------------------------------------------------
       NWT REQUIRED            4 OUTER ITERATIONS 
       AND A TOTAL OF          7 INNER ITERATIONS.
    ------------------------------------------------

 NO OUTPUT CONTROL FOR STRESS PERIOD   19   TIME STEP   17
 
 SOLVING FOR HEAD 
                                                   Max.-Head-Change                         Max.-Flux-Residual
  Residual-Control   Outer-Iter.   Inner-Iter.     Column Row Layer    Maximum-Head-Change  Column Row Layer    Maximum-Flux-Residual          L2-NORM 
          0                 1           2             4    7     1      -0.5010552465E-01       4    7    1        -0.2629727466E+01      0.5598980576E+01
          0                 2           2             4    7     1       0.4871829679E-02       4    7    1         0.2629522784E+00      0.5095626233E+00
          0                 3           2             4    7     1      -0.3317540981E-03       4    7    1        -0.1840669501E-01      0.3566955932E-01
          0                 4           1             4    7     1       0.1320074169E-04       4    7    1         0.7528347462E-03      0.1458759653E-02

    ------------------------------------------------
       NWT REQUIRED            4 OUTER ITERATIONS 
       AND A TOTAL OF          7 INNER ITERATIONS.
    ------------------------------------------------

 NO OUTPUT CONTROL FOR STRESS PERIOD   19   TIME STEP   18
 
 SOLVING FOR HEAD 
                                                   Max.-Head-Change                         Max.-Flux-Residual
  Residual-Control   Outer-Iter.   Inner-Iter.     Column Row Layer    Maximum-Head-Change  Column Row Layer    Maximum-Flux-Residual          L2-NORM 
          0                 1           2             4    7     1      -0.4960134229E-01       4    7    1        -0.2603513620E+01      0.5536631100E+01
          0                 2           2             4    7     1       0.4822786942E-02       4    7    1         0.2603309073E+00      0.5041322993E+00
          0                 3           2             4    7     1      -0.3284144671E-03       4    7    1        -0.1822319881E-01      0.3528945950E-01
          0                 4           1             4    7     1       0.1306785462E-04       4    7    1         0.7453297487E-03      0.1443214946E-02

    ------------------------------------------------
       NWT REQUIRED            4 OUTER ITERATIONS 
       AND A TOTAL OF          7 INNER ITERATIONS.
    ------------------------------------------------

 NO OUTPUT CONTROL FOR STRESS PERIOD   19   TIME STEP   19
 
 SOLVING FOR HEAD 
                                                   Max.-Head-Change                         Max.-Flux-Residual
  Residual-Control   Outer-Iter.   Inner-Iter.     Column Row Layer    Maximum-Head-Change  Column Row Layer    Maximum-Flux-Residual          L2-NORM 
          0                 1           2             4    7     1      -0.4909810883E-01       4    7    1        -0.2577320052E+01      0.5476283292E+01
          0                 2           2             4    7     1       0.4773836563E-02       4    7    1         0.2577115677E+00      0.4988789802E+00
          0                 3           2             4    7     1      -0.3250811247E-03       4    7    1        -0.1803984480E-01      0.3492173696E-01
          0                 4           1             4    7     1       0.1293521553E-04       4    7    1         0.7378305336E-03      0.1428142852E-02

    ------------------------------------------------
       NWT REQUIRED            4 OUTER ITERATIONS 
       AND A TOTAL OF          7 INNER ITERATIONS.
    ------------------------------------------------

 NO OUTPUT CONTROL FOR STRESS PERIOD   19   TIME STEP   20
 
 SOLVING FOR HEAD 
                                                   Max.-Head-Change                         Max.-Flux-Residual
  Residual-Control   Outer-Iter.   Inner-Iter.     Column Row Layer    Maximum-Head-Change  Column Row Layer    Maximum-Flux-Residual          L2-NORM 
          0                 1           2             4    7     1      -0.4859633965E-01       4    7    1        -0.2551175697E+01      0.5417836287E+01
          0                 2           2             4    7     1       0.4725028660E-02       4    7    1         0.2550971530E+00      0.4937933088E+00
          0                 3           2             4    7     1      -0.3217574840E-03       4    7    1        -0.1785683548E-01      0.3456575436E-01
          0                 4           1             4    7     1       0.1280296685E-04       4    7    1         0.7303454556E-03      0.1413632522E-02

    ------------------------------------------------
       NWT REQUIRED            4 OUTER ITERATIONS 
       AND A TOTAL OF          7 INNER ITERATIONS.
    ------------------------------------------------

 NO OUTPUT CONTROL FOR STRESS PERIOD   19   TIME STEP   21
 
 SOLVING FOR HEAD 
                                                   Max.-Head-Change                         Max.-Flux-Residual
  Residual-Control   Outer-Iter.   Inner-Iter.     Column Row Layer    Maximum-Head-Change  Column Row Layer    Maximum-Flux-Residual          L2-NORM 
          0                 1           2             4    7     1      -0.4809623639E-01       4    7    1        -0.2525092579E+01      0.5361190066E+01
          0                 2           2             4    7     1       0.4676382851E-02       4    7    1         0.2524888651E+00      0.4888665044E+00
          0                 3           2             4    7     1      -0.3184448808E-03       4    7    1        -0.1767425500E-01      0.3422090353E-01
          0                 4           1             4    7     1       0.1267115542E-04       4    7    1         0.7228779100E-03      0.1399530277E-02

    ------------------------------------------------
       NWT REQUIRED            4 OUTER ITERATIONS 
       AND A TOTAL OF          7 INNER ITERATIONS.
    ------------------------------------------------

 NO OUTPUT CONTROL FOR STRESS PERIOD   19   TIME STEP   22
 
 SOLVING FOR HEAD 
                                                   Max.-Head-Change                         Max.-Flux-Residual
  Residual-Control   Outer-Iter.   Inner-Iter.     Column Row Layer    Maximum-Head-Change  Column Row Layer    Maximum-Flux-Residual          L2-NORM 
          0                 1           2             4    7     1      -0.4759864832E-01       4    7    1        -0.2499117901E+01      0.5306261623E+01
          0                 2           2             4    7     1       0.4627981738E-02       4    7    1         0.2498914239E+00      0.4840913884E+00
          0                 3           2             4    7     1      -0.3151489400E-03       4    7    1        -0.1749243377E-01      0.3388663280E-01
          0                 4           1             4    7     1       0.1254000654E-04       4    7    1         0.7154414079E-03      0.1385851446E-02

    ------------------------------------------------
       NWT REQUIRED            4 OUTER ITERATIONS 
       AND A TOTAL OF          7 INNER ITERATIONS.
    ------------------------------------------------

 NO OUTPUT CONTROL FOR STRESS PERIOD   19   TIME STEP   23
 
 SOLVING FOR HEAD 
                                                   Max.-Head-Change                         Max.-Flux-Residual
  Residual-Control   Outer-Iter.   Inner-Iter.     Column Row Layer    Maximum-Head-Change  Column Row Layer    Maximum-Flux-Residual          L2-NORM 
          0                 1           2             4    7     1      -0.4710368783E-01       4    7    1        -0.2473258951E+01      0.5252959791E+01
          0                 2           2             4    7     1       0.4579836251E-02       4    7    1         0.2473055580E+00      0.4794593915E+00
          0                 3           2             4    7     1      -0.3118704062E-03       4    7    1        -0.1731142279E-01      0.3356241588E-01
          0                 4           1             4    7     1       0.1240954901E-04       4    7    1         0.7080380487E-03      0.1372544534E-02

    ------------------------------------------------
       NWT REQUIRED            4 OUTER ITERATIONS 
       AND A TOTAL OF          7 INNER ITERATIONS.
    ------------------------------------------------

 NO OUTPUT CONTROL FOR STRESS PERIOD   19   TIME STEP   24
 
 SOLVING FOR HEAD 
                                                   Max.-Head-Change                         Max.-Flux-Residual
  Residual-Control   Outer-Iter.   Inner-Iter.     Column Row Layer    Maximum-Head-Change  Column Row Layer    Maximum-Flux-Residual          L2-NORM 
          0                 1           2             4    7     1      -0.4661172238E-01       4    7    1        -0.2447536254E+01      0.5201215589E+01
          0                 2           2             4    7     1       0.4531982123E-02       4    7    1         0.2447333196E+00      0.4749648743E+00
          0                 3           2             4    7     1      -0.3086117127E-03       4    7    1        -0.1713136571E-01      0.3324779635E-01
          0                 4           1             4    7     1       0.1227988264E-04       4    7    1         0.7006737176E-03      0.1359684512E-02

    ------------------------------------------------
       NWT REQUIRED            4 OUTER ITERATIONS 
       AND A TOTAL OF          7 INNER ITERATIONS.
    ------------------------------------------------

 NO OUTPUT CONTROL FOR STRESS PERIOD   19   TIME STEP   25
 
 SOLVING FOR HEAD 
                                                   Max.-Head-Change                         Max.-Flux-Residual
  Residual-Control   Outer-Iter.   Inner-Iter.     Column Row Layer    Maximum-Head-Change  Column Row Layer    Maximum-Flux-Residual          L2-NORM 
          0                 1           2             4    7     1      -0.4612335345E-01       4    7    1        -0.2421983557E+01      0.5150964701E+01
          0                 2           2             4    7     1       0.4484477862E-02       4    7    1         0.2421780829E+00      0.4706019949E+00
          0                 3           2             4    7     1      -0.3053768438E-03       4    7    1        -0.1695249876E-01      0.3294240142E-01
          0                 4           1             4    7     1       0.1215116641E-04       4    7    1         0.6933580594E-03      0.1347240323E-02

    ------------------------------------------------
       NWT REQUIRED            4 OUTER ITERATIONS 
       AND A TOTAL OF          7 INNER ITERATIONS.
    ------------------------------------------------

 NO OUTPUT CONTROL FOR STRESS PERIOD   19   TIME STEP   26
 
 SOLVING FOR HEAD 
                                                   Max.-Head-Change                         Max.-Flux-Residual
  Residual-Control   Outer-Iter.   Inner-Iter.     Column Row Layer    Maximum-Head-Change  Column Row Layer    Maximum-Flux-Residual          L2-NORM 
          0                 1           2             4    7     1      -0.4563859758E-01       4    7    1        -0.2396602659E+01      0.5102122890E+01
          0                 2           2             4    7     1       0.4437325076E-02       4    7    1         0.2396400277E+00      0.4663634252E+00
          0                 3           2             4    7     1      -0.3021659063E-03       4    7    1        -0.1677483448E-01      0.3264569531E-01
          0                 4           1             4    7     1       0.1202339964E-04       4    7    1         0.6860915628E-03      0.1335106222E-02

    ------------------------------------------------
       NWT REQUIRED            4 OUTER ITERATIONS 
       AND A TOTAL OF          7 INNER ITERATIONS.
    ------------------------------------------------

 NO OUTPUT CONTROL FOR STRESS PERIOD   19   TIME STEP   27
 
 SOLVING FOR HEAD 
                                                   Max.-Head-Change                         Max.-Flux-Residual
  Residual-Control   Outer-Iter.   Inner-Iter.     Column Row Layer    Maximum-Head-Change  Column Row Layer    Maximum-Flux-Residual          L2-NORM 
          0                 1           2             4    7     1      -0.4515785380E-01       4    7    1        -0.2371416455E+01      0.5054637605E+01
          0                 2           2             4    7     1       0.4390562576E-02       4    7    1         0.2371214433E+00      0.4622443828E+00
          0                 3           2             4    7     1      -0.2989815517E-03       4    7    1        -0.1659853314E-01      0.3235737873E-01
          0                 4           1             4    7     1       0.1189669170E-04       4    7    1         0.6788808491E-03      0.1323314832E-02

    ------------------------------------------------
       NWT REQUIRED            4 OUTER ITERATIONS 
       AND A TOTAL OF          7 INNER ITERATIONS.
    ------------------------------------------------

 NO OUTPUT CONTROL FOR STRESS PERIOD   19   TIME STEP   28
 
 SOLVING FOR HEAD 
                                                   Max.-Head-Change                         Max.-Flux-Residual
  Residual-Control   Outer-Iter.   Inner-Iter.     Column Row Layer    Maximum-Head-Change  Column Row Layer    Maximum-Flux-Residual          L2-NORM 
          0                 1           2             4    7     1      -0.4468123876E-01       4    7    1        -0.2346430947E+01      0.5010100756E+01
          0                 2           2             4    7     1       0.4344201704E-02       4    7    1         0.2346229297E+00      0.4584157889E+00
          0                 3           2             4    7     1      -0.2958245429E-03       4    7    1        -0.1642363677E-01      0.3208893487E-01
          0                 4           1             4    7     1       0.1177106953E-04       4    7    1         0.6717275753E-03      0.1312234033E-02

    ------------------------------------------------
       NWT REQUIRED            4 OUTER ITERATIONS 
       AND A TOTAL OF          7 INNER ITERATIONS.
    ------------------------------------------------

 NO OUTPUT CONTROL FOR STRESS PERIOD   19   TIME STEP   29
 
 SOLVING FOR HEAD 
                                                   Max.-Head-Change                         Max.-Flux-Residual
  Residual-Control   Outer-Iter.   Inner-Iter.     Column Row Layer    Maximum-Head-Change  Column Row Layer    Maximum-Flux-Residual          L2-NORM 
          0                 1           2             4    7     1      -0.4420925095E-01       4    7    1        -0.2321674212E+01      0.4968379558E+01
          0                 2           2             4    7     1       0.4298290943E-02       4    7    1         0.2321472945E+00      0.4548606869E+00
          0                 3           2             4    7     1      -0.2926981839E-03       4    7    1        -0.1625034185E-01      0.3183911070E-01
          0                 4           1             4    7     1       0.1164667036E-04       4    7    1         0.6646397883E-03      0.1302020898E-02

    ------------------------------------------------
       NWT REQUIRED            4 OUTER ITERATIONS 
       AND A TOTAL OF          7 INNER ITERATIONS.
    ------------------------------------------------

 NO OUTPUT CONTROL FOR STRESS PERIOD   19   TIME STEP   30



 STREAM LISTING     PERIOD     19   STEP       30

 LAYER ROW COL. STREAM  RCH.  FLOW INTO     FLOW TO   FLOW OUT OF   OVRLND.     DIRECT     STREAM       STREAM     STREAM     STREAM   STREAMBED  STREAMBED
                SEG.NO.  NO.  STRM. RCH.    AQUIFER    STRM. RCH.    RUNOFF     PRECIP       ET          HEAD       DEPTH      WIDTH   CONDCTNC.   GRADIENT

   1    1    1     1     1    5.4001E+01  3.5066E-01   5.3650E+01  0.000E+00  0.000E+00  0.000E+00  1.09450E+03  1.450E+00  1.751E+01  7.879E-02  1.483E+00
   1    2    2     1     2    5.3650E+01  5.4294E-01   5.3107E+01  0.000E+00  0.000E+00  0.000E+00  1.08950E+03  1.445E+00  1.745E+01  1.222E-01  1.482E+00
   1    3    3     1     3    5.3107E+01  4.6294E-01   5.2644E+01  0.000E+00  0.000E+00  0.000E+00  1.08386E+03  1.438E+00  1.739E+01  1.043E-01  1.479E+00
   1    3    4     1     4    5.2644E+01  4.2621E-01   5.2218E+01  0.000E+00  0.000E+00  0.000E+00  1.07884E+03  1.432E+00  1.733E+01  9.616E-02  1.477E+00
   1    4    5     2     1    5.0218E+01  3.7682E-01   4.9841E+01  0.000E+00  0.000E+00  0.000E+00  1.07376E+03  1.831E+00  1.200E+01  7.800E-02  1.610E+00
   1    5    6     2     2    4.9841E+01  2.8942E-01   4.9552E+01  0.000E+00  0.000E+00  0.000E+00  1.06833E+03  1.824E+00  1.200E+01  6.000E-02  1.608E+00
   1    6    6     2     3    4.9552E+01  2.8904E-01   4.9263E+01  0.000E+00  0.000E+00  0.000E+00  1.06361E+03  1.817E+00  1.200E+01  6.000E-02  1.606E+00
   1    7    6     2     4    4.9263E+01  2.8865E-01   4.8974E+01  0.000E+00  0.000E+00  0.000E+00  1.05889E+03  1.811E+00  1.200E+01  6.000E-02  1.604E+00
   1    8    6     2     5    4.8974E+01  2.8827E-01   4.8686E+01  0.000E+00  0.000E+00  0.000E+00  1.05416E+03  1.804E+00  1.200E+01  6.000E-02  1.601E+00
   1    3    5     3     1    2.0000E+00  2.8252E-01   1.7175E+00  0.000E+00  0.000E+00  0.000E+00  1.07555E+03  1.909E+00  9.636E+00  7.227E-02  1.955E+00
   1    3    6     3     2    1.7175E+00  2.4905E-01   1.4684E+00  0.000E+00  0.000E+00  0.000E+00  1.07264E+03  1.727E+00  8.909E+00  6.682E-02  1.864E+00
   1    3    7     3     3    1.4684E+00  1.9718E-01   1.2712E+00  0.000E+00  0.000E+00  0.000E+00  1.06987E+03  1.555E+00  8.218E+00  5.547E-02  1.777E+00
   1    4    8     3     4    1.2712E+00  2.2567E-01   1.0456E+00  0.000E+00  0.000E+00  0.000E+00  1.06682E+03  1.364E+00  7.455E+00  6.709E-02  1.682E+00
   1    5    8     3     5    1.0456E+00  1.5790E-01   8.8768E-01  0.000E+00  0.000E+00  0.000E+00  1.06362E+03  1.164E+00  6.655E+00  4.991E-02  1.582E+00
   1    6    8     3     6    8.8768E-01  5.5980E-02   8.3170E-01  0.000E+00  0.000E+00  0.000E+00  1.06158E+03  1.036E+00  6.145E+00  1.844E-02  1.518E+00
   1    5   10     4     1    1.0000E+01  9.0919E-02   9.9091E+00  0.000E+00  0.000E+00  0.000E+00  1.07836E+03  6.368E-01  1.000E+01  2.500E-02  1.212E+00
   1    5    9     4     2    9.9091E+00  1.8158E-01   9.7275E+00  0.000E+00  0.000E+00  0.000E+00  1.07154E+03  6.315E-01  1.000E+01  5.000E-02  1.211E+00
   1    6    8     4     3    9.7275E+00  1.2689E-01   9.6006E+00  0.000E+00  0.000E+00  0.000E+00  1.06381E+03  6.256E-01  1.000E+01  3.500E-02  1.209E+00
   1    6    8     5     1    1.0432E+01  2.2686E-01   1.0205E+01  0.000E+00  0.000E+00  0.000E+00  1.05868E+03  6.790E-01  1.542E+01  6.166E-02  1.226E+00
   1    7    7     5     2    1.0205E+01  2.7894E-01   9.9265E+00  0.000E+00  0.000E+00  0.000E+00  1.05417E+03  6.732E-01  1.519E+01  7.594E-02  1.224E+00
   1    8    7     5     3    9.9265E+00  1.9221E-01   9.7343E+00  0.000E+00  0.000E+00  0.000E+00  1.04992E+03  6.676E-01  1.497E+01  5.241E-02  1.223E+00
   1    8    6     5     4    9.7343E+00  1.3577E-01   9.5985E+00  0.000E+00  0.000E+00  0.000E+00  1.04691E+03  6.637E-01  1.482E+01  3.706E-02  1.221E+00
   1    9    6     6     1    5.8284E+01  3.0156E-01   5.7983E+01  0.000E+00  0.000E+00  0.000E+00  1.04475E+03  2.026E+00  1.200E+01  6.000E-02  1.675E+00
   1   10    7     6     2    5.7983E+01  3.0118E-01   5.7682E+01  0.000E+00  0.000E+00  0.000E+00  1.04020E+03  2.020E+00  1.200E+01  6.000E-02  1.673E+00
   1   11    7     6     3    5.7682E+01  3.0080E-01   5.7381E+01  0.000E+00  0.000E+00  0.000E+00  1.03565E+03  2.013E+00  1.200E+01  6.000E-02  1.671E+00
   1   12    7     6     4    5.7381E+01  3.0042E-01   5.7080E+01  0.000E+00  0.000E+00  0.000E+00  1.03110E+03  2.007E+00  1.200E+01  6.000E-02  1.669E+00
   1   13    7     6     5    5.7080E+01  1.9679E-02   5.7061E+01  0.000E+00  0.000E+00  0.000E+00  1.02791E+03  2.004E+00  1.200E+01  2.400E-02  2.733E-01
   1   14    9     7     1    1.5000E+02  1.3320E+00   1.4867E+02  0.000E+00  0.000E+00  0.000E+00  1.03987E+03  2.288E+00  5.529E+01  5.593E-01  7.938E-01
   1   13    8     7     2    1.4867E+02  1.8275E+00   1.4684E+02  0.000E+00  0.000E+00  0.000E+00  1.03478E+03  2.279E+00  5.526E+01  6.148E-01  9.909E-01
   1   13    7     7     3    1.4684E+02  1.4504E+00   1.4539E+02  0.000E+00  0.000E+00  0.000E+00  1.02969E+03  2.271E+00  5.522E+01  5.585E-01  8.657E-01
   1   13    6     8     1    2.0245E+02  1.0308E+00   2.0142E+02  0.000E+00  0.000E+00  0.000E+00  1.02502E+03  3.149E+00  4.566E+01  4.653E-01  7.384E-01
   1   13    5     8     2    2.0142E+02  2.3547E-01   2.0118E+02  0.000E+00  0.000E+00  0.000E+00  1.01877E+03  3.145E+00  4.561E+01  4.648E-01  1.689E-01
   1   13    4     8     3    2.0118E+02 -2.2671E+00   2.0345E+02  0.000E+00  0.000E+00  0.000E+00  1.01253E+03  3.151E+00  4.569E+01  4.656E+00 -1.623E-01
   1   13    3     8     4    2.0345E+02 -3.4625E+00   2.0691E+02  0.000E+00  0.000E+00  0.000E+00  1.00629E+03  3.168E+00  4.594E+01  4.681E+00 -2.466E-01
   1   13    2     8     5    2.0691E+02 -2.6100E+00   2.0952E+02  0.000E+00  0.000E+00  0.000E+00  1.00006E+03  3.185E+00  4.619E+01  4.707E+00 -1.848E-01
   1   13    1     8     6    2.0952E+02 -2.0316E+00   2.1156E+02  0.000E+00  0.000E+00  0.000E+00  9.95074E+02  3.199E+00  4.638E+01  2.836E+00 -2.388E-01





UNSATURATED ZONE PACKAGE VOLUMETRIC BUDGET FOR  TIME STEP    30 STRESS PERIOD   19
  ------------------------------------------------------------------------------



     CUMULATIVE VOLUMES      L**3       RATES FOR THIS TIME STEP      L**3/T
     ------------------                 ------------------------

           IN:                                      IN:
           ---                                      ---
        INFILTRATION =   764274216.3152          INFILTRATION =          26.6074

          OUT:                                     OUT:
          ----                                     ----
              UZF ET =   638208484.3356                UZF ET =          26.6074
        UZF RECHARGE =    73804203.4082          UZF RECHARGE =       0.0000E+00

            IN - OUT =    52261528.5714              IN - OUT =       0.0000E+00

          STORAGE:                                 STORAGE:
          --------                                 --------
      STORAGE CHANGE =    52263037.1938        STORAGE CHANGE =      -6.4310E-08

 PERCENT DISCREPANCY IS DIFFERENCE BETWEEN IN-OUT MINUS CHANGE IN STORAGE
 DIVIDED BY THE AVERAGE OF IN AND OUT TIMES 100

 PERCENT DISCREPANCY =          -0.00     PERCENT DISCREPANCY =           0.00






1
  VOLUMETRIC BUDGET FOR AGRICULTURAL FIELDS AT TIME STEP   30, STRESS PERIOD  19
  ------------------------------------------------------------------------------

     CUMULATIVE VOLUMES      L**3       RATES FOR THIS TIME STEP      L**3/T
     ------------------                 ------------------------

           IN:                                      IN:
           ---                                      ---
               AG WELLS  =   555549632.0000                 AG WELLS  =          22.1999
      DIVERSION SEGMENTS =           0.0000        DIVERSION SEGMENTS =           0.0000
           GW IRRIGATION =           0.0000             GW IRRIGATION =           0.0000
           SW IRRIGATION =           0.0000             SW IRRIGATION =           0.0000
        SYSTEM LOSSES GW =           0.0000          SYSTEM LOSSES GW =           0.0000
        SYSTEM LOSSES SW =           0.0000          SYSTEM LOSSES SW =           0.0000

                TOTAL IN =   555549632.0000                  TOTAL IN =          22.1999

          OUT:                                     OUT:
          ----                                     ----
               AG WELLS  =           0.0000                 AG WELLS  =           0.0000
      DIVERSION SEGMENTS =           0.0000        DIVERSION SEGMENTS =           0.0000
           GW IRRIGATION =   555549632.0000             GW IRRIGATION =          22.1999
           SW IRRIGATION =           0.0000             SW IRRIGATION =           0.0000
        SYSTEM LOSSES GW =           0.0000          SYSTEM LOSSES GW =           0.0000
        SYSTEM LOSSES SW =           0.0000          SYSTEM LOSSES SW =           0.0000

               TOTAL OUT =   555549632.0000                 TOTAL OUT =          22.1999

                IN - OUT =           0.0000                  IN - OUT =           0.0000

     PERCENT DISCREPANCY =           0.00         PERCENT DISCREPANCY =           0.00



1
  VOLUMETRIC BUDGET FOR ENTIRE MODEL AT END OF TIME STEP   30, STRESS PERIOD  19
  ------------------------------------------------------------------------------

     CUMULATIVE VOLUMES      L**3       RATES FOR THIS TIME STEP      L**3/T
     ------------------                 ------------------------

           IN:                                      IN:
           ---                                      ---
             STORAGE     =   704800384.0000               STORAGE     =          20.4726
       CONSTANT HEAD     =           0.0000         CONSTANT HEAD     =           0.0000
     HEAD DEP BOUNDS     =    13536209.0000       HEAD DEP BOUNDS     =           0.2855
      STREAM LEAKAGE     =   596063232.0000        STREAM LEAKAGE     =          12.8162
        UZF RECHARGE     =    73804200.0000          UZF RECHARGE     =           0.0000
               GW ET     =           0.0000                 GW ET     =           0.0000
     SURFACE LEAKAGE     =           0.0000       SURFACE LEAKAGE     =           0.0000
           AG WELLS      =           0.0000             AG WELLS      =           0.0000

                TOTAL IN =  1388203904.0000                  TOTAL IN =          33.5743

          OUT:                                     OUT:
          ----                                     ----
             STORAGE     =   312762848.0000               STORAGE     =           0.3682
       CONSTANT HEAD     =           0.0000         CONSTANT HEAD     =           0.0000
     HEAD DEP BOUNDS     =    13979135.0000       HEAD DEP BOUNDS     =           0.2960
      STREAM LEAKAGE     =   489692224.0000        STREAM LEAKAGE     =          10.3713
        UZF RECHARGE     =           0.0000          UZF RECHARGE     =           0.0000
               GW ET     =    16219822.0000                 GW ET     =           0.3390
     SURFACE LEAKAGE     =           0.0000       SURFACE LEAKAGE     =           0.0000
           AG WELLS      =   555549632.0000             AG WELLS      =          22.1999

               TOTAL OUT =  1388203648.0000                 TOTAL OUT =          33.5744

                IN - OUT =         256.0000                  IN - OUT =      -6.1035E-05

     PERCENT DISCREPANCY =           0.00         PERCENT DISCREPANCY =          -0.00






         TIME SUMMARY AT END OF TIME STEP   30 IN STRESS PERIOD   19
                    SECONDS     MINUTES      HOURS       DAYS        YEARS
                    -----------------------------------------------------------
   TIME STEP LENGTH  87667.      1461.1      24.352      1.0147     2.77799E-03
 STRESS PERIOD TIME 2.63000E+06  43833.      730.56      30.440     8.33397E-02
         TOTAL TIME 4.74265E+07 7.90442E+05  13174.      548.92      1.5029    
1
1
                            STRESS PERIOD NO.   20, LENGTH =   2630000.    
                            -----------------------------------------------

                              NUMBER OF TIME STEPS =    30

                               MULTIPLIER FOR DELT =     1.000

                            INITIAL TIME STEP SIZE =   87666.66    

 REUSING NON-PARAMETER GHB CELLS FROM LAST STRESS PERIOD

      2 GHB CELLS

 REUSING STREAM SEGMENT DATA FROM LAST STRESS PERIOD



            AREAL INFILTRATION RATE
 READING ON UNIT   19 WITH FORMAT: (10F4.0)            

            1           2           3           4           5           6           7           8           9          10
 ........................................................................................................................
   1   1.2000E-09   0.000       0.000       0.000       0.000       0.000       0.000       0.000       0.000       0.000    
   2   2.1000E-09  2.0000E-09  8.0000E-10  8.5000E-09   0.000       0.000       0.000       0.000       0.000       0.000    
   3   5.0000E-10  1.1000E-09  8.8000E-09  5.5000E-09   0.000       0.000       0.000       0.000       0.000       0.000    
   4   8.5000E-09  1.1000E-09  1.1000E-09  1.1000E-09  2.0000E-09   0.000       0.000       0.000       0.000       0.000    
   5   8.5000E-09  1.1000E-09  1.1000E-09  1.1000E-09  1.1000E-09   0.000       0.000       0.000       0.000       0.000    
   6   8.5000E-09  5.2000E-09  2.1000E-09  1.1000E-09  1.5000E-09   0.000       0.000       0.000       0.000       0.000    
   7   8.5000E-09  5.2000E-09  2.1000E-09  1.2000E-09  2.0000E-09   0.000       0.000       0.000       0.000       0.000    
   8   5.0000E-10  5.2000E-09  2.1000E-09  1.2000E-09  5.0000E-09   0.000       0.000       0.000       0.000       0.000    
   9   5.0000E-10  5.2000E-09  2.1000E-09  1.2000E-09  5.0000E-09   0.000       0.000       0.000       0.000       0.000    
  10   5.0000E-10  5.2000E-09  2.1000E-09  1.2000E-09  5.8000E-09   0.000       0.000       0.000       0.000       0.000    
  11   1.0000E-10  1.1000E-09  1.1000E-09  1.2000E-09  5.0000E-09   0.000       0.000       0.000       0.000       0.000    
  12   1.1000E-09  1.1000E-09  1.1000E-09  1.1000E-09  2.0000E-09   0.000       0.000       0.000       0.000       0.000    
  13   1.1000E-09  2.2000E-09  2.2000E-09  2.1000E-09  1.0000E-09   0.000       0.000       0.000       0.000       0.000    
  14   2.0000E-10  5.5000E-09  5.5000E-09  5.2000E-09  1.0000E-09   0.000       0.000       0.000       0.000       0.000    
  15    0.000      8.8000E-09  8.8000E-09   0.000       0.000       0.000       0.000       0.000       0.000       0.000    

                  ET RATE =  4.000000E-07

 USING ET EXTINCTION DEPTH FROM PREVIOUS STRESS PERIOD. CURRENT PERIOD IS:      20

 USING EXTINCTION WATER CONTENT FROM PREVIOUS STRESS PERIOD. CURRENT PERIOD IS:      20

 USING AIR ENTRY PRESSURE FROM PREVIOUS STRESS PERIOD. CURRENT PERIOD IS:      20

 USING ROOT PRESSURE HEAD FROM PREVIOUS STRESS PERIOD. CURRENT PERIOD IS:      20

 USING ROOT ACTIVITY FROM PREVIOUS STRESS PERIOD. CURRENT PERIOD IS:      20

 PROCESSING AG STRESS PERIOD DATA

 READING AG STRESS PERIOD DATA

 READING IRRIGATION WELL

 END PROCESSING AG STRESS PERIOD DATA OPTIONS
 
 SOLVING FOR HEAD 
                                                   Max.-Head-Change                         Max.-Flux-Residual
  Residual-Control   Outer-Iter.   Inner-Iter.     Column Row Layer    Maximum-Head-Change  Column Row Layer    Maximum-Flux-Residual          L2-NORM 
          0                 1           2             4    7     1      -0.1634500296E+00       4    7    1        -0.8547142962E+01      0.1993626900E+02
          0                 2           2             6    7     1       0.1309906212E-02       6    7    1         0.7192542125E-01      0.2086370938E+00
          0                 3           2             5    8     1      -0.1231787787E-01       5    8    1        -0.6600592803E+00      0.1592921785E+01
          0                 4           2             4    7     1      -0.9016033629E-02       5    7    1        -0.4996896588E+00      0.1197565629E+01
          0                 5           2             4    7     1      -0.7411620738E-02       5    7    1        -0.4104681158E+00      0.9882706675E+00
          0                 6           2             4    7     1      -0.6113946381E-02       5    7    1        -0.3385993406E+00      0.8146990773E+00
          0                 7           2             4    7     1      -0.5069956418E-02       5    7    1        -0.2807628944E+00      0.6755796986E+00
          0                 8           2             4    7     1      -0.4220970508E-02       5    7    1        -0.2337358172E+00      0.5624090328E+00
          0                 9           2             4    7     1      -0.3525273123E-02       5    7    1        -0.1952026244E+00      0.4696876554E+00
          0                10           2             4    7     1      -0.2951726817E-02       5    7    1        -0.1634399042E+00      0.3932558797E+00
                                                   Max.-Head-Change                         Max.-Flux-Residual
  Residual-Control   Outer-Iter.   Inner-Iter.     Column Row Layer    Maximum-Head-Change  Column Row Layer    Maximum-Flux-Residual          L2-NORM 
          0                11           2             4    7     1      -0.2476624112E-02       5    7    1        -0.1371282153E+00      0.3299448908E+00
          0                12           2             4    7     1      -0.2081505620E-02       5    7    1        -0.1152471008E+00      0.2772963260E+00
          0                13           2             4    7     1      -0.1751845685E-02       5    7    1        -0.9699332600E-01      0.2333737901E+00
          0                14           2             4    7     1      -0.1476119257E-02       5    7    1        -0.8172398206E-01      0.1966360824E+00
          0                15           2             4    7     1      -0.1244963912E-02       5    7    1        -0.6892533587E-01      0.1658407246E+00
          0                16           2             4    7     1      -0.1050843976E-02       5    7    1        -0.5817683931E-01      0.1399795834E+00
          0                17           2             4    7     1      -0.8875689915E-03       5    7    1        -0.4913823957E-01      0.1182287738E+00
          0                18           2             4    7     1      -0.7500844409E-03       5    7    1        -0.4152622454E-01      0.9991376688E-01
          0                19           2             4    7     1      -0.6342065039E-03       5    7    1        -0.3510963339E-01      0.8447683285E-01
          0                20           2             4    7     1      -0.5364422783E-03       5    7    1        -0.2969722269E-01      0.7145376224E-01
                                                   Max.-Head-Change                         Max.-Flux-Residual
  Residual-Control   Outer-Iter.   Inner-Iter.     Column Row Layer    Maximum-Head-Change  Column Row Layer    Maximum-Flux-Residual          L2-NORM 
          0                21           2             4    7     1      -0.4538915928E-03       5    7    1        -0.2512575392E-01      0.6045687093E-01
          0                22           2             4    7     1      -0.3841336312E-03       5    7    1        -0.2126618981E-01      0.5116671999E-01
          0                23           2             4    7     1      -0.3251906124E-03       5    7    1        -0.1800244989E-01      0.4331431567E-01
          0                24           2             4    7     1      -0.2753472360E-03       5    7    1        -0.1524276022E-01      0.3667510784E-01
          0                25           2             4    7     1      -0.2331865960E-03       5    7    1        -0.1290773798E-01      0.3105814899E-01
          0                26           2             4    7     1      -0.1975053597E-03       5    7    1        -0.1093277621E-01      0.2630586706E-01
          0                27           2             4    7     1      -0.1672980592E-03       5    7    1        -0.9261275746E-02      0.2228282547E-01
          0                28           2             4    7     1      -0.1417237535E-03       5    7    1        -0.7844906236E-02      0.1887644978E-01
          0                29           2             4    7     1      -0.1200740722E-03       5    7    1        -0.6646462880E-02      0.1599264705E-01
          0                30           1             4    7     1      -0.1017384330E-03       5    7    1        -0.5632111398E-02      0.1355025590E-01
          0                31           1             4    7     1      -0.8620547264E-04       5    7    1        -0.4771696869E-02      0.1148165024E-01

    ------------------------------------------------
       NWT REQUIRED           31 OUTER ITERATIONS 
       AND A TOTAL OF         60 INNER ITERATIONS.
    ------------------------------------------------

 OUTPUT CONTROL FOR STRESS PERIOD   20   TIME STEP    1
    PRINT BUDGET
    SAVE BUDGET
    SAVE BUDGET
    SAVE HEAD FOR ALL LAYERS
 UBDSV1 SAVING "         STORAGE" ON UNIT 102 AT TIME STEP  1, STRESS PERIOD  20
 UBDSV2 SAVING "   CONSTANT HEAD" ON UNIT 102 AT TIME STEP  1, STRESS PERIOD  20
 UBDSV1 SAVING "FLOW RIGHT FACE " ON UNIT 102 AT TIME STEP  1, STRESS PERIOD  20
 UBDSV1 SAVING "FLOW FRONT FACE " ON UNIT 102 AT TIME STEP  1, STRESS PERIOD  20

  HEAD DEP BOUNDS   PERIOD   20   STEP     1
 BOUNDARY      1   LAYER   1   ROW    13   COL     1   RATE   -0.295984    
 BOUNDARY      2   LAYER   1   ROW    14   COL     9   RATE    0.285498    



 STREAM LISTING     PERIOD     20   STEP        1

 LAYER ROW COL. STREAM  RCH.  FLOW INTO     FLOW TO   FLOW OUT OF   OVRLND.     DIRECT     STREAM       STREAM     STREAM     STREAM   STREAMBED  STREAMBED
                SEG.NO.  NO.  STRM. RCH.    AQUIFER    STRM. RCH.    RUNOFF     PRECIP       ET          HEAD       DEPTH      WIDTH   CONDCTNC.   GRADIENT

   1    1    1     1     1    5.4001E+01  3.5066E-01   5.3650E+01  0.000E+00  0.000E+00  0.000E+00  1.09450E+03  1.450E+00  1.751E+01  7.879E-02  1.483E+00
   1    2    2     1     2    5.3650E+01  5.4294E-01   5.3107E+01  0.000E+00  0.000E+00  0.000E+00  1.08950E+03  1.445E+00  1.745E+01  1.222E-01  1.482E+00
   1    3    3     1     3    5.3107E+01  4.6294E-01   5.2644E+01  0.000E+00  0.000E+00  0.000E+00  1.08386E+03  1.438E+00  1.739E+01  1.043E-01  1.479E+00
   1    3    4     1     4    5.2644E+01  4.2621E-01   5.2218E+01  0.000E+00  0.000E+00  0.000E+00  1.07884E+03  1.432E+00  1.733E+01  9.616E-02  1.477E+00
   1    4    5     2     1    5.0218E+01  3.7682E-01   4.9841E+01  0.000E+00  0.000E+00  0.000E+00  1.07376E+03  1.831E+00  1.200E+01  7.800E-02  1.610E+00
   1    5    6     2     2    4.9841E+01  2.8942E-01   4.9552E+01  0.000E+00  0.000E+00  0.000E+00  1.06833E+03  1.824E+00  1.200E+01  6.000E-02  1.608E+00
   1    6    6     2     3    4.9552E+01  2.8904E-01   4.9263E+01  0.000E+00  0.000E+00  0.000E+00  1.06361E+03  1.817E+00  1.200E+01  6.000E-02  1.606E+00
   1    7    6     2     4    4.9263E+01  2.8865E-01   4.8974E+01  0.000E+00  0.000E+00  0.000E+00  1.05889E+03  1.811E+00  1.200E+01  6.000E-02  1.604E+00
   1    8    6     2     5    4.8974E+01  2.8827E-01   4.8686E+01  0.000E+00  0.000E+00  0.000E+00  1.05416E+03  1.804E+00  1.200E+01  6.000E-02  1.601E+00
   1    3    5     3     1    2.0000E+00  2.8252E-01   1.7175E+00  0.000E+00  0.000E+00  0.000E+00  1.07555E+03  1.909E+00  9.636E+00  7.227E-02  1.955E+00
   1    3    6     3     2    1.7175E+00  2.4905E-01   1.4684E+00  0.000E+00  0.000E+00  0.000E+00  1.07264E+03  1.727E+00  8.909E+00  6.682E-02  1.864E+00
   1    3    7     3     3    1.4684E+00  1.9718E-01   1.2712E+00  0.000E+00  0.000E+00  0.000E+00  1.06987E+03  1.555E+00  8.218E+00  5.547E-02  1.777E+00
   1    4    8     3     4    1.2712E+00  2.2567E-01   1.0456E+00  0.000E+00  0.000E+00  0.000E+00  1.06682E+03  1.364E+00  7.455E+00  6.709E-02  1.682E+00
   1    5    8     3     5    1.0456E+00  1.5790E-01   8.8768E-01  0.000E+00  0.000E+00  0.000E+00  1.06362E+03  1.164E+00  6.655E+00  4.991E-02  1.582E+00
   1    6    8     3     6    8.8768E-01  5.5980E-02   8.3170E-01  0.000E+00  0.000E+00  0.000E+00  1.06158E+03  1.036E+00  6.145E+00  1.844E-02  1.518E+00
   1    5   10     4     1    1.0000E+01  9.0919E-02   9.9091E+00  0.000E+00  0.000E+00  0.000E+00  1.07836E+03  6.368E-01  1.000E+01  2.500E-02  1.212E+00
   1    5    9     4     2    9.9091E+00  1.8158E-01   9.7275E+00  0.000E+00  0.000E+00  0.000E+00  1.07154E+03  6.315E-01  1.000E+01  5.000E-02  1.211E+00
   1    6    8     4     3    9.7275E+00  1.2689E-01   9.6006E+00  0.000E+00  0.000E+00  0.000E+00  1.06381E+03  6.256E-01  1.000E+01  3.500E-02  1.209E+00
   1    6    8     5     1    1.0432E+01  2.2686E-01   1.0205E+01  0.000E+00  0.000E+00  0.000E+00  1.05868E+03  6.790E-01  1.542E+01  6.166E-02  1.226E+00
   1    7    7     5     2    1.0205E+01  2.7894E-01   9.9265E+00  0.000E+00  0.000E+00  0.000E+00  1.05417E+03  6.732E-01  1.519E+01  7.594E-02  1.224E+00
   1    8    7     5     3    9.9265E+00  1.9221E-01   9.7343E+00  0.000E+00  0.000E+00  0.000E+00  1.04992E+03  6.676E-01  1.497E+01  5.241E-02  1.223E+00
   1    8    6     5     4    9.7343E+00  1.3577E-01   9.5985E+00  0.000E+00  0.000E+00  0.000E+00  1.04691E+03  6.637E-01  1.482E+01  3.706E-02  1.221E+00
   1    9    6     6     1    5.8284E+01  3.0156E-01   5.7983E+01  0.000E+00  0.000E+00  0.000E+00  1.04475E+03  2.026E+00  1.200E+01  6.000E-02  1.675E+00
   1   10    7     6     2    5.7983E+01  3.0118E-01   5.7682E+01  0.000E+00  0.000E+00  0.000E+00  1.04020E+03  2.020E+00  1.200E+01  6.000E-02  1.673E+00
   1   11    7     6     3    5.7682E+01  3.0080E-01   5.7381E+01  0.000E+00  0.000E+00  0.000E+00  1.03565E+03  2.013E+00  1.200E+01  6.000E-02  1.671E+00
   1   12    7     6     4    5.7381E+01  3.0042E-01   5.7080E+01  0.000E+00  0.000E+00  0.000E+00  1.03110E+03  2.007E+00  1.200E+01  6.000E-02  1.669E+00
   1   13    7     6     5    5.7080E+01  1.9688E-02   5.7061E+01  0.000E+00  0.000E+00  0.000E+00  1.02791E+03  2.004E+00  1.200E+01  2.400E-02  2.734E-01
   1   14    9     7     1    1.5000E+02  1.3320E+00   1.4867E+02  0.000E+00  0.000E+00  0.000E+00  1.03987E+03  2.288E+00  5.529E+01  5.593E-01  7.938E-01
   1   13    8     7     2    1.4867E+02  1.8276E+00   1.4684E+02  0.000E+00  0.000E+00  0.000E+00  1.03478E+03  2.279E+00  5.526E+01  6.148E-01  9.910E-01
   1   13    7     7     3    1.4684E+02  1.4506E+00   1.4539E+02  0.000E+00  0.000E+00  0.000E+00  1.02969E+03  2.271E+00  5.522E+01  5.585E-01  8.658E-01
   1   13    6     8     1    2.0245E+02  1.0312E+00   2.0142E+02  0.000E+00  0.000E+00  0.000E+00  1.02502E+03  3.149E+00  4.566E+01  4.653E-01  7.387E-01
   1   13    5     8     2    2.0142E+02  2.3579E-01   2.0118E+02  0.000E+00  0.000E+00  0.000E+00  1.01877E+03  3.145E+00  4.561E+01  4.648E-01  1.691E-01
   1   13    4     8     3    2.0118E+02 -2.2541E+00   2.0344E+02  0.000E+00  0.000E+00  0.000E+00  1.01253E+03  3.151E+00  4.569E+01  4.656E+00 -1.614E-01
   1   13    3     8     4    2.0344E+02 -3.4366E+00   2.0687E+02  0.000E+00  0.000E+00  0.000E+00  1.00629E+03  3.168E+00  4.593E+01  4.681E+00 -2.447E-01
   1   13    2     8     5    2.0687E+02 -2.6043E+00   2.0948E+02  0.000E+00  0.000E+00  0.000E+00  1.00006E+03  3.185E+00  4.619E+01  4.706E+00 -1.844E-01
   1   13    1     8     6    2.0948E+02 -2.0291E+00   2.1151E+02  0.000E+00  0.000E+00  0.000E+00  9.95073E+02  3.198E+00  4.638E+01  2.836E+00 -2.385E-01



 UBDSV3 SAVING "           GW ET" ON UNIT  61 AT TIME STEP  1, STRESS PERIOD  20
 UBDSV3 SAVING "    UZF RECHARGE" ON UNIT  61 AT TIME STEP  1, STRESS PERIOD  20
 UBDSV3 SAVING " SURFACE LEAKAGE" ON UNIT  61 AT TIME STEP  1, STRESS PERIOD  20
 UBDSV3 SAVING "       HORT+DUNN" ON UNIT  61 AT TIME STEP  1, STRESS PERIOD  20
 UBDSV3 SAVING "  STORAGE CHANGE" ON UNIT  61 AT TIME STEP  1, STRESS PERIOD  20


UNSATURATED ZONE PACKAGE VOLUMETRIC BUDGET FOR  TIME STEP     1 STRESS PERIOD   20
  ------------------------------------------------------------------------------



     CUMULATIVE VOLUMES      L**3       RATES FOR THIS TIME STEP      L**3/T
     ------------------                 ------------------------

           IN:                                      IN:
           ---                                      ---
        INFILTRATION =   772292582.7595          INFILTRATION =          91.4643

          OUT:                                     OUT:
          ----                                     ----
              UZF ET =   643826337.8424                UZF ET =          64.0820
        UZF RECHARGE =    73804203.4082          UZF RECHARGE =       0.0000E+00

            IN - OUT =    54662041.5089              IN - OUT =          27.3823

          STORAGE:                                 STORAGE:
          --------                                 --------
      STORAGE CHANGE =    54663550.0493        STORAGE CHANGE =          27.3823

 PERCENT DISCREPANCY IS DIFFERENCE BETWEEN IN-OUT MINUS CHANGE IN STORAGE
 DIVIDED BY THE AVERAGE OF IN AND OUT TIMES 100

 PERCENT DISCREPANCY =          -0.00     PERCENT DISCREPANCY =           0.00






 

            AG WELLS      PERIOD   20   STEP   1
 AG WELL      1   LAYER   1   ROW     6   COL     4   RATE    -14.5321    
 AG WELL      2   LAYER   1   ROW     6   COL     5   RATE    -14.5218    
 AG WELL      3   LAYER   1   ROW     7   COL     4   RATE    -14.5296    
 AG WELL      4   LAYER   1   ROW     7   COL     5   RATE    -14.5096    
 AG WELL      5   LAYER   1   ROW     8   COL     4   RATE    -14.5296    
 AG WELL      6   LAYER   1   ROW     8   COL     5   RATE    -14.4340    
 
 

        GW IRRIGATION     PERIOD   20   STEP   1
 AG WELL      1   ROW     6   COL     4   RATE     14.5321    
 AG WELL      2   ROW     6   COL     5   RATE     14.5218    
 AG WELL      3   ROW     7   COL     4   RATE     14.5296    
 AG WELL      4   ROW     7   COL     5   RATE     14.5096    
 AG WELL      5   ROW     8   COL     4   RATE     14.5296    
 AG WELL      6   ROW     8   COL     5   RATE     14.4340    
 
1
  VOLUMETRIC BUDGET FOR AGRICULTURAL FIELDS AT TIME STEP    1, STRESS PERIOD  20
  ------------------------------------------------------------------------------

     CUMULATIVE VOLUMES      L**3       RATES FOR THIS TIME STEP      L**3/T
     ------------------                 ------------------------

           IN:                                      IN:
           ---                                      ---
               AG WELLS  =   563181632.0000                 AG WELLS  =          87.0568
      DIVERSION SEGMENTS =           0.0000        DIVERSION SEGMENTS =           0.0000
           GW IRRIGATION =           0.0000             GW IRRIGATION =           0.0000
           SW IRRIGATION =           0.0000             SW IRRIGATION =           0.0000
        SYSTEM LOSSES GW =           0.0000          SYSTEM LOSSES GW =           0.0000
        SYSTEM LOSSES SW =           0.0000          SYSTEM LOSSES SW =           0.0000

                TOTAL IN =   563181632.0000                  TOTAL IN =          87.0568

          OUT:                                     OUT:
          ----                                     ----
               AG WELLS  =           0.0000                 AG WELLS  =           0.0000
      DIVERSION SEGMENTS =           0.0000        DIVERSION SEGMENTS =           0.0000
           GW IRRIGATION =   563181632.0000             GW IRRIGATION =          87.0568
           SW IRRIGATION =           0.0000             SW IRRIGATION =           0.0000
        SYSTEM LOSSES GW =           0.0000          SYSTEM LOSSES GW =           0.0000
        SYSTEM LOSSES SW =           0.0000          SYSTEM LOSSES SW =           0.0000

               TOTAL OUT =   563181632.0000                 TOTAL OUT =          87.0568

                IN - OUT =           0.0000                  IN - OUT =           0.0000

     PERCENT DISCREPANCY =           0.00         PERCENT DISCREPANCY =           0.00




 HEAD WILL BE SAVED ON UNIT   62 AT END OF TIME STEP    1, STRESS PERIOD   20
1
  VOLUMETRIC BUDGET FOR ENTIRE MODEL AT END OF TIME STEP    1, STRESS PERIOD  20
  ------------------------------------------------------------------------------

     CUMULATIVE VOLUMES      L**3       RATES FOR THIS TIME STEP      L**3/T
     ------------------                 ------------------------

           IN:                                      IN:
           ---                                      ---
             STORAGE     =   712312256.0000               STORAGE     =          85.6867
       CONSTANT HEAD     =           0.0000         CONSTANT HEAD     =           0.0000
     HEAD DEP BOUNDS     =    13561238.0000       HEAD DEP BOUNDS     =           0.2855
      STREAM LEAKAGE     =   597186880.0000        STREAM LEAKAGE     =          12.8173
        UZF RECHARGE     =    73804200.0000          UZF RECHARGE     =           0.0000
               GW ET     =           0.0000                 GW ET     =           0.0000
     SURFACE LEAKAGE     =           0.0000       SURFACE LEAKAGE     =           0.0000
           AG WELLS      =           0.0000             AG WELLS      =           0.0000

                TOTAL IN =  1396864512.0000                  TOTAL IN =          98.7895

          OUT:                                     OUT:
          ----                                     ----
             STORAGE     =   312795104.0000               STORAGE     =           0.3678
       CONSTANT HEAD     =           0.0000         CONSTANT HEAD     =           0.0000
     HEAD DEP BOUNDS     =    14005083.0000       HEAD DEP BOUNDS     =           0.2960
      STREAM LEAKAGE     =   490597312.0000        STREAM LEAKAGE     =          10.3240
        UZF RECHARGE     =           0.0000          UZF RECHARGE     =           0.0000
               GW ET     =    16284975.0000                 GW ET     =           0.7432
     SURFACE LEAKAGE     =           0.0000       SURFACE LEAKAGE     =           0.0000
           AG WELLS      =   563181632.0000             AG WELLS      =          87.0568

               TOTAL OUT =  1396864128.0000                 TOTAL OUT =          98.7878

                IN - OUT =         384.0000                  IN - OUT =       1.6861E-03

     PERCENT DISCREPANCY =           0.00         PERCENT DISCREPANCY =           0.00






         TIME SUMMARY AT END OF TIME STEP    1 IN STRESS PERIOD   20
                    SECONDS     MINUTES      HOURS       DAYS        YEARS
                    -----------------------------------------------------------
   TIME STEP LENGTH  87667.      1461.1      24.352      1.0147     2.77799E-03
 STRESS PERIOD TIME  87667.      1461.1      24.352      1.0147     2.77799E-03
         TOTAL TIME 4.75142E+07 7.91903E+05  13198.      549.93      1.5056    
1
 
 SOLVING FOR HEAD 
                                                   Max.-Head-Change                         Max.-Flux-Residual
  Residual-Control   Outer-Iter.   Inner-Iter.     Column Row Layer    Maximum-Head-Change  Column Row Layer    Maximum-Flux-Residual          L2-NORM 
          0                 1           2             4    7     1      -0.1619022063E+00       4    7    1        -0.8471006118E+01      0.1951983872E+02
          0                 2           2             6    7     1       0.1597992160E-02       6    7    1         0.8796748926E-01      0.2402777019E+00
          0                 3           2             5    7     1      -0.1222980611E-01       4    7    1        -0.6482995509E+00      0.1577033685E+01
          0                 4           2             4    7     1      -0.9016006335E-02       4    7    1        -0.4991607971E+00      0.1141883762E+01
          0                 5           2             4    7     1      -0.7411246358E-02       4    7    1        -0.4100560043E+00      0.9495980311E+00
          0                 6           2             4    7     1      -0.6113654392E-02       4    7    1        -0.3382802924E+00      0.7823908465E+00
          0                 7           2             4    7     1      -0.5069730691E-02       4    7    1        -0.2805086660E+00      0.6490781760E+00
          0                 8           2             4    7     1      -0.4220783048E-02       4    7    1        -0.2335319211E+00      0.5404769571E+00
          0                 9           2             4    7     1      -0.3525116519E-02       4    7    1        -0.1950378071E+00      0.4514650839E+00
          0                10           2             4    7     1      -0.2951611207E-02       4    7    1        -0.1633041911E+00      0.3780612974E+00
                                                   Max.-Head-Change                         Max.-Flux-Residual
  Residual-Control   Outer-Iter.   Inner-Iter.     Column Row Layer    Maximum-Head-Change  Column Row Layer    Maximum-Flux-Residual          L2-NORM 
          0                11           2             4    7     1      -0.2476527800E-02       4    7    1        -0.1370170936E+00      0.3172407150E+00
          0                12           2             4    7     1      -0.2081408856E-02       4    7    1        -0.1151549547E+00      0.2666482866E+00
          0                13           2             4    7     1      -0.1751779339E-02       4    7    1        -0.9691674895E-01      0.2244338221E+00
          0                14           2             4    7     1      -0.1476046523E-02       4    7    1        -0.8166083973E-01      0.1891178826E+00
          0                15           2             4    7     1      -0.1244917814E-02       4    7    1        -0.6887300682E-01      0.1595118797E+00
          0                16           2             4    7     1      -0.1050804713E-02       4    7    1        -0.5813332237E-01      0.1346450203E+00
          0                17           2             4    7     1      -0.8875355857E-03       4    7    1        -0.4910026318E-01      0.1137279671E+00
          0                18           2             4    7     1      -0.7500562564E-03       4    7    1        -0.4149415155E-01      0.9611403281E-01
          0                19           2             4    7     1      -0.6341829702E-03       4    7    1        -0.3508348380E-01      0.8126760950E-01
          0                20           2             4    7     1      -0.5364223565E-03       4    7    1        -0.2967496398E-01      0.6874128937E-01
                                                   Max.-Head-Change                         Max.-Flux-Residual
  Residual-Control   Outer-Iter.   Inner-Iter.     Column Row Layer    Maximum-Head-Change  Column Row Layer    Maximum-Flux-Residual          L2-NORM 
          0                21           2             4    7     1      -0.4538750891E-03       4    7    1        -0.2510816404E-01      0.5816388738E-01
          0                22           2             4    7     1      -0.3841193252E-03       4    7    1        -0.2124905255E-01      0.4922669498E-01
          0                23           2             4    7     1      -0.3251783809E-03       4    7    1        -0.1798833673E-01      0.4167232481E-01
          0                24           2             4    7     1      -0.2753369508E-03       4    7    1        -0.1523102666E-01      0.3528548290E-01
          0                25           2             4    7     1      -0.2331781631E-03       4    7    1        -0.1289876059E-01      0.2988291286E-01
          0                26           2             4    7     1      -0.1974981501E-03       4    7    1        -0.1092492926E-01      0.2531047247E-01
          0                27           2             4    7     1      -0.1672917586E-03       4    7    1        -0.9253918707E-02      0.2143943116E-01
          0                28           2             4    7     1      -0.1417185620E-03       4    7    1        -0.7839229626E-02      0.1816214971E-01
          0                29           2             4    7     1      -0.1200696741E-03       4    7    1        -0.6641641980E-02      0.1538779365E-01
          0                30           1             4    7     1      -0.1017345414E-03       4    7    1        -0.5627378316E-02      0.1303804490E-01
          0                31           1             4    7     1      -0.8620229563E-04       4    7    1        -0.4768174107E-02      0.1104748377E-01

    ------------------------------------------------
       NWT REQUIRED           31 OUTER ITERATIONS 
       AND A TOTAL OF         60 INNER ITERATIONS.
    ------------------------------------------------

 NO OUTPUT CONTROL FOR STRESS PERIOD   20   TIME STEP    2
 
 SOLVING FOR HEAD 
                                                   Max.-Head-Change                         Max.-Flux-Residual
  Residual-Control   Outer-Iter.   Inner-Iter.     Column Row Layer    Maximum-Head-Change  Column Row Layer    Maximum-Flux-Residual          L2-NORM 
          0                 1           2             4    7     1      -0.1602715150E+00       4    7    1        -0.8390357542E+01      0.1904951086E+02
          0                 2           2             6    7     1       0.1871969656E-02       6    7    1         0.1032970930E+00      0.2932266609E+00
          0                 3           2             5    7     1      -0.1219559750E-01       4    7    1        -0.6477613616E+00      0.1571881510E+01
          0                 4           2             4    7     1      -0.9016473957E-02       4    7    1        -0.4991767807E+00      0.1142379190E+01
          0                 5           2             4    7     1      -0.7411249323E-02       4    7    1        -0.4100552912E+00      0.9495490914E+00
          0                 6           2             4    7     1      -0.6113672497E-02       4    7    1        -0.3382797852E+00      0.7823957040E+00
          0                 7           2             4    7     1      -0.5069745060E-02       4    7    1        -0.2805082932E+00      0.6490776870E+00
          0                 8           2             4    7     1      -0.4220795037E-02       4    7    1        -0.2335316050E+00      0.5404770023E+00
          0                 9           2             4    7     1      -0.3525126532E-02       4    7    1        -0.1950375447E+00      0.4514650763E+00
          0                10           2             4    7     1      -0.2951619591E-02       4    7    1        -0.1633039718E+00      0.3780612957E+00
                                                   Max.-Head-Change                         Max.-Flux-Residual
  Residual-Control   Outer-Iter.   Inner-Iter.     Column Row Layer    Maximum-Head-Change  Column Row Layer    Maximum-Flux-Residual          L2-NORM 
          0                11           2             4    7     1      -0.2476534835E-02       4    7    1        -0.1370169099E+00      0.3172407131E+00
          0                12           2             4    7     1      -0.2081414768E-02       4    7    1        -0.1151548006E+00      0.2666482850E+00
          0                13           2             4    7     1      -0.1751784314E-02       4    7    1        -0.9691661947E-01      0.2244338208E+00
          0                14           2             4    7     1      -0.1476050716E-02       4    7    1        -0.8166073077E-01      0.1891178815E+00
          0                15           2             4    7     1      -0.1244921349E-02       4    7    1        -0.6887291499E-01      0.1595118788E+00
          0                16           2             4    7     1      -0.1050807698E-02       4    7    1        -0.5813324494E-01      0.1346450195E+00
          0                17           2             4    7     1      -0.8875381066E-03       4    7    1        -0.4910019783E-01      0.1137279665E+00
          0                18           2             4    7     1      -0.7500583870E-03       4    7    1        -0.4149409636E-01      0.9611403227E-01
          0                19           2             4    7     1      -0.6341847711E-03       4    7    1        -0.3508343715E-01      0.8126760902E-01
          0                20           2             4    7     1      -0.5364238802E-03       4    7    1        -0.2967492456E-01      0.6874128899E-01
                                                   Max.-Head-Change                         Max.-Flux-Residual
  Residual-Control   Outer-Iter.   Inner-Iter.     Column Row Layer    Maximum-Head-Change  Column Row Layer    Maximum-Flux-Residual          L2-NORM 
          0                21           2             4    7     1      -0.4538763783E-03       4    7    1        -0.2510813070E-01      0.5816388706E-01
          0                22           2             4    7     1      -0.3841204159E-03       4    7    1        -0.2124902434E-01      0.4922669469E-01
          0                23           2             4    7     1      -0.3251793049E-03       4    7    1        -0.1798831286E-01      0.4167232458E-01
          0                24           2             4    7     1      -0.2753377325E-03       4    7    1        -0.1523100643E-01      0.3528548269E-01
          0                25           2             4    7     1      -0.2331788254E-03       4    7    1        -0.1289874348E-01      0.2988291270E-01
          0                26           2             4    7     1      -0.1974987110E-03       4    7    1        -0.1092491478E-01      0.2531047232E-01
          0                27           2             4    7     1      -0.1672922339E-03       4    7    1        -0.9253906446E-02      0.2143943105E-01
          0                28           2             4    7     1      -0.1417189641E-03       4    7    1        -0.7839219225E-02      0.1816214962E-01
          0                29           2             4    7     1      -0.1200700158E-03       4    7    1        -0.6641633201E-02      0.1538779358E-01
          0                30           1             4    7     1      -0.1017348301E-03       4    7    1        -0.5627370837E-02      0.1303804482E-01
          0                31           1             4    7     1      -0.8620254053E-04       4    7    1        -0.4768167790E-02      0.1104748369E-01

    ------------------------------------------------
       NWT REQUIRED           31 OUTER ITERATIONS 
       AND A TOTAL OF         60 INNER ITERATIONS.
    ------------------------------------------------

 NO OUTPUT CONTROL FOR STRESS PERIOD   20   TIME STEP    3
 
 SOLVING FOR HEAD 
                                                   Max.-Head-Change                         Max.-Flux-Residual
  Residual-Control   Outer-Iter.   Inner-Iter.     Column Row Layer    Maximum-Head-Change  Column Row Layer    Maximum-Flux-Residual          L2-NORM 
          0                 1           2             4    7     1      -0.1585699814E+00       4    7    1        -0.8305631035E+01      0.1860754663E+02
          0                 2           2             6    7     1       0.2133268606E-02       6    7    1         0.1179309724E+00      0.3493385557E+00
          0                 3           2             5    7     1      -0.1216189217E-01       4    7    1        -0.6471939751E+00      0.1566919866E+01
          0                 4           2             4    7     1      -0.9016962416E-02       4    7    1        -0.4991941052E+00      0.1142856043E+01
          0                 5           2             4    7     1      -0.7411252856E-02       4    7    1        -0.4100545210E+00      0.9495020456E+00
          0                 6           2             4    7     1      -0.6113691750E-02       4    7    1        -0.3382792909E+00      0.7824003738E+00
          0                 7           2             4    7     1      -0.5069760354E-02       4    7    1        -0.2805079273E+00      0.6490772187E+00
          0                 8           2             4    7     1      -0.4220807798E-02       4    7    1        -0.2335312949E+00      0.5404770471E+00
          0                 9           2             4    7     1      -0.3525137188E-02       4    7    1        -0.1950372872E+00      0.4514650702E+00
          0                10           2             4    7     1      -0.2951628513E-02       4    7    1        -0.1633037567E+00      0.3780612949E+00
                                                   Max.-Head-Change                         Max.-Flux-Residual
  Residual-Control   Outer-Iter.   Inner-Iter.     Column Row Layer    Maximum-Head-Change  Column Row Layer    Maximum-Flux-Residual          L2-NORM 
          0                11           2             4    7     1      -0.2476542321E-02       4    7    1        -0.1370167298E+00      0.3172407120E+00
          0                12           2             4    7     1      -0.2081421060E-02       4    7    1        -0.1151546495E+00      0.2666482842E+00
          0                13           2             4    7     1      -0.1751789610E-02       4    7    1        -0.9691649244E-01      0.2244338201E+00
          0                14           2             4    7     1      -0.1476055178E-02       4    7    1        -0.8166062387E-01      0.1891178809E+00
          0                15           2             4    7     1      -0.1244925113E-02       4    7    1        -0.6887282492E-01      0.1595118783E+00
          0                16           2             4    7     1      -0.1050810874E-02       4    7    1        -0.5813316895E-01      0.1346450191E+00
          0                17           2             4    7     1      -0.8875407896E-03       4    7    1        -0.4910013371E-01      0.1137279661E+00
          0                18           2             4    7     1      -0.7500606543E-03       4    7    1        -0.4149404220E-01      0.9611403197E-01
          0                19           2             4    7     1      -0.6341866883E-03       4    7    1        -0.3508339139E-01      0.8126760878E-01
          0                20           2             4    7     1      -0.5364255016E-03       4    7    1        -0.2967488587E-01      0.6874128877E-01
                                                   Max.-Head-Change                         Max.-Flux-Residual
  Residual-Control   Outer-Iter.   Inner-Iter.     Column Row Layer    Maximum-Head-Change  Column Row Layer    Maximum-Flux-Residual          L2-NORM 
          0                21           2             4    7     1      -0.4538777505E-03       4    7    1        -0.2510809799E-01      0.5816388690E-01
          0                22           2             4    7     1      -0.3841215768E-03       4    7    1        -0.2124899666E-01      0.4922669455E-01
          0                23           2             4    7     1      -0.3251802877E-03       4    7    1        -0.1798828944E-01      0.4167232446E-01
          0                24           2             4    7     1      -0.2753385650E-03       4    7    1        -0.1523098662E-01      0.3528548260E-01
          0                25           2             4    7     1      -0.2331795300E-03       4    7    1        -0.1289872670E-01      0.2988291262E-01
          0                26           2             4    7     1      -0.1974993083E-03       4    7    1        -0.1092490057E-01      0.2531047226E-01
          0                27           2             4    7     1      -0.1672927393E-03       4    7    1        -0.9253894403E-02      0.2143943100E-01
          0                28           2             4    7     1      -0.1417193931E-03       4    7    1        -0.7839209048E-02      0.1816214957E-01
          0                29           2             4    7     1      -0.1200703782E-03       4    7    1        -0.6641624550E-02      0.1538779354E-01
          0                30           1             4    7     1      -0.1017351377E-03       4    7    1        -0.5627363539E-02      0.1303804481E-01
          0                31           1             4    7     1      -0.8620280118E-04       4    7    1        -0.4768161599E-02      0.1104748369E-01

    ------------------------------------------------
       NWT REQUIRED           31 OUTER ITERATIONS 
       AND A TOTAL OF         60 INNER ITERATIONS.
    ------------------------------------------------

 NO OUTPUT CONTROL FOR STRESS PERIOD   20   TIME STEP    4
 
 SOLVING FOR HEAD 
                                                   Max.-Head-Change                         Max.-Flux-Residual
  Residual-Control   Outer-Iter.   Inner-Iter.     Column Row Layer    Maximum-Head-Change  Column Row Layer    Maximum-Flux-Residual          L2-NORM 
          0                 1           2             4    7     1      -0.1568048327E+00       4    7    1        -0.8217225006E+01      0.1819147506E+02
          0                 2           2             5    8     1      -0.2602345696E-02       5    8    1        -0.1455598831E+00      0.4057025480E+00
          0                 3           2             5    7     1      -0.1212872025E-01       4    7    1        -0.6466001892E+00      0.1562138223E+01
          0                 4           2             4    7     1      -0.9017469620E-02       4    7    1        -0.4992126538E+00      0.1143315253E+01
          0                 5           2             4    7     1      -0.7411256929E-02       4    7    1        -0.4100536985E+00      0.9494567965E+00
          0                 6           2             4    7     1      -0.6113712059E-02       4    7    1        -0.3382788089E+00      0.7824048654E+00
          0                 7           2             4    7     1      -0.5069776498E-02       4    7    1        -0.2805075681E+00      0.6490767700E+00
          0                 8           2             4    7     1      -0.4220821267E-02       4    7    1        -0.2335309907E+00      0.5404770913E+00
          0                 9           2             4    7     1      -0.3525148436E-02       4    7    1        -0.1950370346E+00      0.4514650653E+00
          0                10           2             4    7     1      -0.2951637932E-02       4    7    1        -0.1633035456E+00      0.3780612950E+00
                                                   Max.-Head-Change                         Max.-Flux-Residual
  Residual-Control   Outer-Iter.   Inner-Iter.     Column Row Layer    Maximum-Head-Change  Column Row Layer    Maximum-Flux-Residual          L2-NORM 
          0                11           2             4    7     1      -0.2476550223E-02       4    7    1        -0.1370165530E+00      0.3172407117E+00
          0                12           2             4    7     1      -0.2081427701E-02       4    7    1        -0.1151545011E+00      0.2666482840E+00
          0                13           2             4    7     1      -0.1751795200E-02       4    7    1        -0.9691636779E-01      0.2244338199E+00
          0                14           2             4    7     1      -0.1476059887E-02       4    7    1        -0.8166051894E-01      0.1891178807E+00
          0                15           2             4    7     1      -0.1244929085E-02       4    7    1        -0.6887273653E-01      0.1595118782E+00
          0                16           2             4    7     1      -0.1050814227E-02       4    7    1        -0.5813309441E-01      0.1346450190E+00
          0                17           2             4    7     1      -0.8875436218E-03       4    7    1        -0.4910007081E-01      0.1137279660E+00
          0                18           2             4    7     1      -0.7500630475E-03       4    7    1        -0.4149398907E-01      0.9611403190E-01
          0                19           2             4    7     1      -0.6341887118E-03       4    7    1        -0.3508334649E-01      0.8126760872E-01
          0                20           2             4    7     1      -0.5364272132E-03       4    7    1        -0.2967484792E-01      0.6874128873E-01
                                                   Max.-Head-Change                         Max.-Flux-Residual
  Residual-Control   Outer-Iter.   Inner-Iter.     Column Row Layer    Maximum-Head-Change  Column Row Layer    Maximum-Flux-Residual          L2-NORM 
          0                21           2             4    7     1      -0.4538791990E-03       4    7    1        -0.2510806589E-01      0.5816388686E-01
          0                22           2             4    7     1      -0.3841228020E-03       4    7    1        -0.2124896948E-01      0.4922669450E-01
          0                23           2             4    7     1      -0.3251813256E-03       4    7    1        -0.1798826646E-01      0.4167232442E-01
          0                24           2             4    7     1      -0.2753394433E-03       4    7    1        -0.1523096715E-01      0.3528548255E-01
          0                25           2             4    7     1      -0.2331802744E-03       4    7    1        -0.1289871023E-01      0.2988291259E-01
          0                26           2             4    7     1      -0.1974999381E-03       4    7    1        -0.1092488661E-01      0.2531047223E-01
          0                27           2             4    7     1      -0.1672932734E-03       4    7    1        -0.9253882600E-02      0.2143943097E-01
          0                28           2             4    7     1      -0.1417198447E-03       4    7    1        -0.7839199036E-02      0.1816214954E-01
          0                29           2             4    7     1      -0.1200707616E-03       4    7    1        -0.6641616101E-02      0.1538779352E-01
          0                30           1             4    7     1      -0.1017354623E-03       4    7    1        -0.5627356369E-02      0.1303804478E-01
          0                31           1             4    7     1      -0.8620307650E-04       4    7    1        -0.4768155530E-02      0.1104748367E-01

    ------------------------------------------------
       NWT REQUIRED           31 OUTER ITERATIONS 
       AND A TOTAL OF         60 INNER ITERATIONS.
    ------------------------------------------------

 NO OUTPUT CONTROL FOR STRESS PERIOD   20   TIME STEP    5
 
 SOLVING FOR HEAD 
                                                   Max.-Head-Change                         Max.-Flux-Residual
  Residual-Control   Outer-Iter.   Inner-Iter.     Column Row Layer    Maximum-Head-Change  Column Row Layer    Maximum-Flux-Residual          L2-NORM 
          0                 1           2             4    7     1      -0.1549827250E+00       4    7    1        -0.8125506815E+01      0.1779922115E+02
          0                 2           2             5    8     1      -0.3099035179E-02       5    8    1        -0.1728275687E+00      0.4610800346E+00
          0                 3           2             5    7     1      -0.1209610538E-01       4    7    1        -0.6459825858E+00      0.1557526841E+01
          0                 4           2             4    7     1      -0.9017993643E-02       4    7    1        -0.4992323181E+00      0.1143757701E+01
          0                 5           2             4    7     1      -0.7411261514E-02       4    7    1        -0.4100528279E+00      0.9494132520E+00
          0                 6           2             4    7     1      -0.6113733337E-02       4    7    1        -0.3382783386E+00      0.7824091879E+00
          0                 7           2             4    7     1      -0.5069793423E-02       4    7    1        -0.2805072153E+00      0.6490763399E+00
          0                 8           2             4    7     1      -0.4220835387E-02       4    7    1        -0.2335306920E+00      0.5404771351E+00
          0                 9           2             4    7     1      -0.3525160228E-02       4    7    1        -0.1950367866E+00      0.4514650616E+00
          0                10           2             4    7     1      -0.2951647805E-02       4    7    1        -0.1633033383E+00      0.3780612960E+00
                                                   Max.-Head-Change                         Max.-Flux-Residual
  Residual-Control   Outer-Iter.   Inner-Iter.     Column Row Layer    Maximum-Head-Change  Column Row Layer    Maximum-Flux-Residual          L2-NORM 
          0                11           2             4    7     1      -0.2476558507E-02       4    7    1        -0.1370163795E+00      0.3172407121E+00
          0                12           2             4    7     1      -0.2081434663E-02       4    7    1        -0.1151543555E+00      0.2666482844E+00
          0                13           2             4    7     1      -0.1751801060E-02       4    7    1        -0.9691624542E-01      0.2244338203E+00
          0                14           2             4    7     1      -0.1476064825E-02       4    7    1        -0.8166041597E-01      0.1891178811E+00
          0                15           2             4    7     1      -0.1244933250E-02       4    7    1        -0.6887264977E-01      0.1595118785E+00
          0                16           2             4    7     1      -0.1050817742E-02       4    7    1        -0.5813302124E-01      0.1346450192E+00
          0                17           2             4    7     1      -0.8875465908E-03       4    7    1        -0.4910000904E-01      0.1137279662E+00
          0                18           2             4    7     1      -0.7500655562E-03       4    7    1        -0.4149393690E-01      0.9611403205E-01
          0                19           2             4    7     1      -0.6341908337E-03       4    7    1        -0.3508330244E-01      0.8126760885E-01
          0                20           2             4    7     1      -0.5364290076E-03       4    7    1        -0.2967481065E-01      0.6874128885E-01
                                                   Max.-Head-Change                         Max.-Flux-Residual
  Residual-Control   Outer-Iter.   Inner-Iter.     Column Row Layer    Maximum-Head-Change  Column Row Layer    Maximum-Flux-Residual          L2-NORM 
          0                21           2             4    7     1      -0.4538807167E-03       4    7    1        -0.2510803437E-01      0.5816388693E-01
          0                22           2             4    7     1      -0.3841240872E-03       4    7    1        -0.2124894286E-01      0.4922669460E-01
          0                23           2             4    7     1      -0.3251824130E-03       4    7    1        -0.1798824390E-01      0.4167232449E-01
          0                24           2             4    7     1      -0.2753403647E-03       4    7    1        -0.1523094808E-01      0.3528548263E-01
          0                25           2             4    7     1      -0.2331810544E-03       4    7    1        -0.1289869407E-01      0.2988291264E-01
          0                26           2             4    7     1      -0.1975005988E-03       4    7    1        -0.1092487293E-01      0.2531047227E-01
          0                27           2             4    7     1      -0.1672938330E-03       4    7    1        -0.9253871012E-02      0.2143943102E-01
          0                28           2             4    7     1      -0.1417203189E-03       4    7    1        -0.7839189226E-02      0.1816214957E-01
          0                29           2             4    7     1      -0.1200711635E-03       4    7    1        -0.6641607785E-02      0.1538779355E-01
          0                30           1             4    7     1      -0.1017358025E-03       4    7    1        -0.5627349312E-02      0.1303804479E-01
          0                31           1             4    7     1      -0.8620336473E-04       4    7    1        -0.4768149560E-02      0.1104748369E-01

    ------------------------------------------------
       NWT REQUIRED           31 OUTER ITERATIONS 
       AND A TOTAL OF         60 INNER ITERATIONS.
    ------------------------------------------------

 NO OUTPUT CONTROL FOR STRESS PERIOD   20   TIME STEP    6
 
 SOLVING FOR HEAD 
                                                   Max.-Head-Change                         Max.-Flux-Residual
  Residual-Control   Outer-Iter.   Inner-Iter.     Column Row Layer    Maximum-Head-Change  Column Row Layer    Maximum-Flux-Residual          L2-NORM 
          0                 1           2             4    7     1      -0.1531101685E+00       4    7    1        -0.8030836192E+01      0.1742900887E+02
          0                 2           2             5    8     1      -0.3569598113E-02       5    8    1        -0.1986372255E+00      0.5149319477E+00
          0                 3           2             4    7     1      -0.1235021052E-01       4    7    1        -0.6451686030E+00      0.1553007349E+01
          0                 4           2             4    7     1      -0.8800727980E-02       5    8    1        -0.4613520873E+00      0.1128087526E+01
          0                 5           2             4    7     1      -0.7341730917E-02       4    7    1        -0.3833012623E+00      0.9386053987E+00
          0                 6           2             4    7     1      -0.6047003499E-02       5    6    1        -0.3157126219E+00      0.7733238356E+00
          0                 7           2             4    7     1      -0.5017193711E-02       4    7    1        -0.2619376449E+00      0.6416013775E+00
          0                 8           2             4    7     1      -0.4177901334E-02       4    7    1        -0.2181198180E+00      0.5342747095E+00
          0                 9           2             4    7     1      -0.3489967889E-02       4    7    1        -0.1822041936E+00      0.4463007599E+00
          0                10           2             4    7     1      -0.2922620655E-02       4    7    1        -0.1525841313E+00      0.3737478241E+00
                                                   Max.-Head-Change                         Max.-Flux-Residual
  Residual-Control   Outer-Iter.   Inner-Iter.     Column Row Layer    Maximum-Head-Change  Column Row Layer    Maximum-Flux-Residual          L2-NORM 
          0                11           2             4    7     1      -0.2452504902E-02       4    7    1        -0.1280403318E+00      0.3136289209E+00
          0                12           2             4    7     1      -0.2061424778E-02       4    7    1        -0.1076227978E+00      0.2636178933E+00
          0                13           2             4    7     1      -0.1735105293E-02       4    7    1        -0.9058634421E-01      0.2218870285E+00
          0                14           2             4    7     1      -0.1462097429E-02       4    7    1        -0.7633315082E-01      0.1869745722E+00
          0                15           2             4    7     1      -0.1233224840E-02       4    7    1        -0.6438417496E-01      0.1577060958E+00
          0                16           2             4    7     1      -0.1040984182E-02       4    7    1        -0.5434767819E-01      0.1331221578E+00
          0                17           2             4    7     1      -0.8792757447E-03       4    7    1        -0.4590520733E-01      0.1124427118E+00
          0                18           2             4    7     1      -0.7431016006E-03       4    7    1        -0.3879583048E-01      0.9502861842E-01
          0                19           2             4    7     1      -0.6283217805E-03       4    7    1        -0.3280340813E-01      0.8035045371E-01
          0                20           2             4    7     1      -0.5314777229E-03       4    7    1        -0.2774737577E-01      0.6796593335E-01
                                                   Max.-Head-Change                         Max.-Flux-Residual
  Residual-Control   Outer-Iter.   Inner-Iter.     Column Row Layer    Maximum-Head-Change  Column Row Layer    Maximum-Flux-Residual          L2-NORM 
          0                21           2             4    7     1      -0.4497003317E-03       4    7    1        -0.2347794362E-01      0.5750815409E-01
          0                22           2             4    7     1      -0.3805918322E-03       5    7    1        -0.1987062314E-01      0.4867197521E-01
          0                23           2             4    7     1      -0.3221983869E-03       4    7    1        -0.1682132795E-01      0.4120292179E-01
          0                24           2             4    7     1      -0.2728172361E-03       4    7    1        -0.1424323498E-01      0.3488817185E-01
          0                25           2             4    7     1      -0.2310471781E-03       4    7    1        -0.1206250513E-01      0.2954655626E-01
          0                26           2             4    7     1      -0.1956948571E-03       4    7    1        -0.1021683202E-01      0.2502566575E-01
          0                27           2             4    7     1      -0.1657653357E-03       4    7    1        -0.8654272340E-02      0.2119824673E-01
          0                28           2             4    7     1      -0.1404265016E-03       4    7    1        -0.7331383137E-02      0.1795788984E-01
          0                29           2             4    7     1      -0.1189760939E-03       4    7    1        -0.6211500796E-02      0.1521478897E-01
          0                30           1             4    7     1      -0.1008084681E-03       4    7    1        -0.5263005815E-02      0.1289149371E-01
          0                31           1             4    7     1      -0.8541791664E-04       4    7    1        -0.4459496375E-02      0.1092333383E-01

    ------------------------------------------------
       NWT REQUIRED           31 OUTER ITERATIONS 
       AND A TOTAL OF         60 INNER ITERATIONS.
    ------------------------------------------------

 NO OUTPUT CONTROL FOR STRESS PERIOD   20   TIME STEP    7
 
 SOLVING FOR HEAD 
                                                   Max.-Head-Change                         Max.-Flux-Residual
  Residual-Control   Outer-Iter.   Inner-Iter.     Column Row Layer    Maximum-Head-Change  Column Row Layer    Maximum-Flux-Residual          L2-NORM 
          0                 1           2             4    7     1      -0.1511930258E+00       4    7    1        -0.7933537595E+01      0.1707923580E+02
          0                 2           2             5    8     1      -0.4015826638E-02       5    8    1        -0.2230898112E+00      0.5670323537E+00
          0                 3           2             4    7     1      -0.1233107707E-01       4    7    1        -0.6441967351E+00      0.1548585480E+01
          0                 4           2             4    7     1      -0.8802677615E-02       5    8    1        -0.4615943673E+00      0.1128533269E+01
          0                 5           2             4    7     1      -0.7341565673E-02       4    7    1        -0.3832915663E+00      0.9385609236E+00
          0                 6           2             4    7     1      -0.6047044535E-02       5    6    1        -0.3157149697E+00      0.7733282764E+00
          0                 7           2             4    7     1      -0.5017209929E-02       4    7    1        -0.2619375477E+00      0.6416009305E+00
          0                 8           2             4    7     1      -0.4177916628E-02       4    7    1        -0.2181198275E+00      0.5342747516E+00
          0                 9           2             4    7     1      -0.3489980485E-02       4    7    1        -0.1822041925E+00      0.4463007535E+00
          0                10           2             4    7     1      -0.2922631222E-02       4    7    1        -0.1525841312E+00      0.3737478230E+00
                                                   Max.-Head-Change                         Max.-Flux-Residual
  Residual-Control   Outer-Iter.   Inner-Iter.     Column Row Layer    Maximum-Head-Change  Column Row Layer    Maximum-Flux-Residual          L2-NORM 
          0                11           2             4    7     1      -0.2452513767E-02       4    7    1        -0.1280403316E+00      0.3136289195E+00
          0                12           2             4    7     1      -0.2061432230E-02       4    7    1        -0.1076227977E+00      0.2636178921E+00
          0                13           2             4    7     1      -0.1735111566E-02       4    7    1        -0.9058634414E-01      0.2218870275E+00
          0                14           2             4    7     1      -0.1462102713E-02       4    7    1        -0.7633315074E-01      0.1869745714E+00
          0                15           2             4    7     1      -0.1233229298E-02       4    7    1        -0.6438417492E-01      0.1577060951E+00
          0                16           2             4    7     1      -0.1040987945E-02       4    7    1        -0.5434767814E-01      0.1331221572E+00
          0                17           2             4    7     1      -0.8792789230E-03       4    7    1        -0.4590520729E-01      0.1124427114E+00
          0                18           2             4    7     1      -0.7431042869E-03       4    7    1        -0.3879583045E-01      0.9502861801E-01
          0                19           2             4    7     1      -0.6283240519E-03       4    7    1        -0.3280340810E-01      0.8035045338E-01
          0                20           2             4    7     1      -0.5314796439E-03       4    7    1        -0.2774737574E-01      0.6796593304E-01
                                                   Max.-Head-Change                         Max.-Flux-Residual
  Residual-Control   Outer-Iter.   Inner-Iter.     Column Row Layer    Maximum-Head-Change  Column Row Layer    Maximum-Flux-Residual          L2-NORM 
          0                21           2             4    7     1      -0.4497019572E-03       4    7    1        -0.2347794360E-01      0.5750815383E-01
          0                22           2             4    7     1      -0.3805932077E-03       5    7    1        -0.1987062307E-01      0.4867197501E-01
          0                23           2             4    7     1      -0.3221995519E-03       4    7    1        -0.1682132795E-01      0.4120292161E-01
          0                24           2             4    7     1      -0.2728182225E-03       4    7    1        -0.1424323496E-01      0.3488817169E-01
          0                25           2             4    7     1      -0.2310480130E-03       4    7    1        -0.1206250510E-01      0.2954655611E-01
          0                26           2             4    7     1      -0.1956955647E-03       4    7    1        -0.1021683201E-01      0.2502566564E-01
          0                27           2             4    7     1      -0.1657659347E-03       4    7    1        -0.8654272325E-02      0.2119824663E-01
          0                28           2             4    7     1      -0.1404270094E-03       4    7    1        -0.7331383130E-02      0.1795788976E-01
          0                29           2             4    7     1      -0.1189765240E-03       4    7    1        -0.6211500784E-02      0.1521478891E-01
          0                30           1             4    7     1      -0.1008088327E-03       4    7    1        -0.5263005812E-02      0.1289149364E-01
          0                31           1             4    7     1      -0.8541822528E-04       4    7    1        -0.4459496357E-02      0.1092333380E-01

    ------------------------------------------------
       NWT REQUIRED           31 OUTER ITERATIONS 
       AND A TOTAL OF         60 INNER ITERATIONS.
    ------------------------------------------------

 NO OUTPUT CONTROL FOR STRESS PERIOD   20   TIME STEP    8
 
 SOLVING FOR HEAD 
                                                   Max.-Head-Change                         Max.-Flux-Residual
  Residual-Control   Outer-Iter.   Inner-Iter.     Column Row Layer    Maximum-Head-Change  Column Row Layer    Maximum-Flux-Residual          L2-NORM 
          0                 1           2             4    7     1      -0.1492369888E+00       4    7    1        -0.7833926424E+01      0.1674846862E+02
          0                 2           2             5    8     1      -0.4439376410E-02       5    8    1        -0.2462782481E+00      0.6171058470E+00
          0                 3           2             4    7     1      -0.1231155596E-01       4    7    1        -0.6432017297E+00      0.1544305680E+01
          0                 4           2             4    7     1      -0.8804667202E-02       5    8    1        -0.4618241613E+00      0.1128964929E+01
          0                 5           2             4    7     1      -0.7341397405E-02       4    7    1        -0.3832816384E+00      0.9385178504E+00
          0                 6           2             4    7     1      -0.6047086676E-02       5    6    1        -0.3157172045E+00      0.7733325767E+00
          0                 7           2             4    7     1      -0.5017226702E-02       4    7    1        -0.2619374482E+00      0.6416004969E+00
          0                 8           2             4    7     1      -0.4177932419E-02       4    7    1        -0.2181198372E+00      0.5342747919E+00
          0                 9           2             4    7     1      -0.3489993494E-02       4    7    1        -0.1822041913E+00      0.4463007470E+00
          0                10           2             4    7     1      -0.2922642134E-02       4    7    1        -0.1525841312E+00      0.3737478215E+00
                                                   Max.-Head-Change                         Max.-Flux-Residual
  Residual-Control   Outer-Iter.   Inner-Iter.     Column Row Layer    Maximum-Head-Change  Column Row Layer    Maximum-Flux-Residual          L2-NORM 
          0                11           2             4    7     1      -0.2452522922E-02       4    7    1        -0.1280403315E+00      0.3136289179E+00
          0                12           2             4    7     1      -0.2061439925E-02       4    7    1        -0.1076227976E+00      0.2636178908E+00
          0                13           2             4    7     1      -0.1735118043E-02       4    7    1        -0.9058634407E-01      0.2218870264E+00
          0                14           2             4    7     1      -0.1462108172E-02       4    7    1        -0.7633315067E-01      0.1869745705E+00
          0                15           2             4    7     1      -0.1233233902E-02       4    7    1        -0.6438417483E-01      0.1577060943E+00
          0                16           2             4    7     1      -0.1040991830E-02       4    7    1        -0.5434767808E-01      0.1331221565E+00
          0                17           2             4    7     1      -0.8792822053E-03       4    7    1        -0.4590520725E-01      0.1124427108E+00
          0                18           2             4    7     1      -0.7431070613E-03       4    7    1        -0.3879583042E-01      0.9502861753E-01
          0                19           2             4    7     1      -0.6283263970E-03       4    7    1        -0.3280340806E-01      0.8035045299E-01
          0                20           2             4    7     1      -0.5314816281E-03       4    7    1        -0.2774737572E-01      0.6796593272E-01
                                                   Max.-Head-Change                         Max.-Flux-Residual
  Residual-Control   Outer-Iter.   Inner-Iter.     Column Row Layer    Maximum-Head-Change  Column Row Layer    Maximum-Flux-Residual          L2-NORM 
          0                21           2             4    7     1      -0.4497036355E-03       4    7    1        -0.2347794357E-01      0.5750815356E-01
          0                22           2             4    7     1      -0.3805946287E-03       5    7    1        -0.1987062301E-01      0.4867197477E-01
          0                23           2             4    7     1      -0.3222007542E-03       4    7    1        -0.1682132791E-01      0.4120292141E-01
          0                24           2             4    7     1      -0.2728192408E-03       4    7    1        -0.1424323495E-01      0.3488817151E-01
          0                25           2             4    7     1      -0.2310488753E-03       4    7    1        -0.1206250509E-01      0.2954655597E-01
          0                26           2             4    7     1      -0.1956962954E-03       4    7    1        -0.1021683201E-01      0.2502566552E-01
          0                27           2             4    7     1      -0.1657665536E-03       4    7    1        -0.8654272317E-02      0.2119824653E-01
          0                28           2             4    7     1      -0.1404275333E-03       4    7    1        -0.7331383123E-02      0.1795788966E-01
          0                29           2             4    7     1      -0.1189769682E-03       4    7    1        -0.6211500791E-02      0.1521478884E-01
          0                30           1             4    7     1      -0.1008092091E-03       4    7    1        -0.5263005808E-02      0.1289149358E-01
          0                31           1             4    7     1      -0.8541854429E-04       4    7    1        -0.4459496345E-02      0.1092333374E-01

    ------------------------------------------------
       NWT REQUIRED           31 OUTER ITERATIONS 
       AND A TOTAL OF         60 INNER ITERATIONS.
    ------------------------------------------------

 NO OUTPUT CONTROL FOR STRESS PERIOD   20   TIME STEP    9
 
 SOLVING FOR HEAD 
                                                   Max.-Head-Change                         Max.-Flux-Residual
  Residual-Control   Outer-Iter.   Inner-Iter.     Column Row Layer    Maximum-Head-Change  Column Row Layer    Maximum-Flux-Residual          L2-NORM 
          0                 1           2             4    7     1      -0.1472474042E+00       4    7    1        -0.7732299479E+01      0.1643547046E+02
          0                 2           2             5    8     1      -0.4841733915E-02       5    8    1        -0.2682872593E+00      0.6657654925E+00
          0                 3           2             4    7     1      -0.1229170118E-01       4    7    1        -0.6421865532E+00      0.1540162651E+01
          0                 4           2             4    7     1      -0.8806691204E-02       5    8    1        -0.4620423011E+00      0.1129383053E+01
          0                 5           2             4    7     1      -0.7341226556E-02       4    7    1        -0.3832715083E+00      0.9384761289E+00
          0                 6           2             4    7     1      -0.6047129784E-02       5    6    1        -0.3157193335E+00      0.7733367430E+00
          0                 7           2             4    7     1      -0.5017243966E-02       4    7    1        -0.2619373467E+00      0.6416000778E+00
          0                 8           2             4    7     1      -0.4177948651E-02       4    7    1        -0.2181198471E+00      0.5342748316E+00
          0                 9           2             4    7     1      -0.3490006867E-02       4    7    1        -0.1822041901E+00      0.4463007411E+00
          0                10           2             4    7     1      -0.2922653352E-02       4    7    1        -0.1525841311E+00      0.3737478206E+00
                                                   Max.-Head-Change                         Max.-Flux-Residual
  Residual-Control   Outer-Iter.   Inner-Iter.     Column Row Layer    Maximum-Head-Change  Column Row Layer    Maximum-Flux-Residual          L2-NORM 
          0                11           2             4    7     1      -0.2452532334E-02       4    7    1        -0.1280403314E+00      0.3136289167E+00
          0                12           2             4    7     1      -0.2061447836E-02       4    7    1        -0.1076227975E+00      0.2636178899E+00
          0                13           2             4    7     1      -0.1735124702E-02       4    7    1        -0.9058634398E-01      0.2218870256E+00
          0                14           2             4    7     1      -0.1462113782E-02       4    7    1        -0.7633315059E-01      0.1869745698E+00
          0                15           2             4    7     1      -0.1233238635E-02       4    7    1        -0.6438417481E-01      0.1577060938E+00
          0                16           2             4    7     1      -0.1040995825E-02       4    7    1        -0.5434767802E-01      0.1331221561E+00
          0                17           2             4    7     1      -0.8792855798E-03       4    7    1        -0.4590520721E-01      0.1124427104E+00
          0                18           2             4    7     1      -0.7431099127E-03       4    7    1        -0.3879583037E-01      0.9502861720E-01
          0                19           2             4    7     1      -0.6283288080E-03       4    7    1        -0.3280340803E-01      0.8035045270E-01
          0                20           2             4    7     1      -0.5314836682E-03       4    7    1        -0.2774737572E-01      0.6796593247E-01
                                                   Max.-Head-Change                         Max.-Flux-Residual
  Residual-Control   Outer-Iter.   Inner-Iter.     Column Row Layer    Maximum-Head-Change  Column Row Layer    Maximum-Flux-Residual          L2-NORM 
          0                21           2             4    7     1      -0.4497053616E-03       4    7    1        -0.2347794355E-01      0.5750815335E-01
          0                22           2             4    7     1      -0.3805960884E-03       5    7    1        -0.1987062295E-01      0.4867197457E-01
          0                23           2             4    7     1      -0.3222019914E-03       4    7    1        -0.1682132792E-01      0.4120292127E-01
          0                24           2             4    7     1      -0.2728202878E-03       4    7    1        -0.1424323493E-01      0.3488817138E-01
          0                25           2             4    7     1      -0.2310497617E-03       4    7    1        -0.1206250507E-01      0.2954655586E-01
          0                26           2             4    7     1      -0.1956970467E-03       4    7    1        -0.1021683201E-01      0.2502566544E-01
          0                27           2             4    7     1      -0.1657671895E-03       4    7    1        -0.8654272296E-02      0.2119824646E-01
          0                28           2             4    7     1      -0.1404280726E-03       4    7    1        -0.7331383117E-02      0.1795788960E-01
          0                29           2             4    7     1      -0.1189774245E-03       4    7    1        -0.6211500767E-02      0.1521478878E-01
          0                30           1             4    7     1      -0.1008095961E-03       4    7    1        -0.5263005801E-02      0.1289149353E-01
          0                31           1             4    7     1      -0.8541887169E-04       4    7    1        -0.4459496338E-02      0.1092333370E-01

    ------------------------------------------------
       NWT REQUIRED           31 OUTER ITERATIONS 
       AND A TOTAL OF         60 INNER ITERATIONS.
    ------------------------------------------------

 NO OUTPUT CONTROL FOR STRESS PERIOD   20   TIME STEP   10
 
 SOLVING FOR HEAD 
                                                   Max.-Head-Change                         Max.-Flux-Residual
  Residual-Control   Outer-Iter.   Inner-Iter.     Column Row Layer    Maximum-Head-Change  Column Row Layer    Maximum-Flux-Residual          L2-NORM 
          0                 1           2             4    7     1      -0.1452291143E+00       4    7    1        -0.7628926257E+01      0.1613899373E+02
          0                 2           2             5    8     1      -0.5224320508E-02       5    8    1        -0.2891957180E+00      0.7124353390E+00
          0                 3           2             4    7     1      -0.1227156033E-01       4    7    1        -0.6411538996E+00      0.1536148445E+01
          0                 4           2             4    7     1      -0.8808744773E-02       5    8    1        -0.4622495691E+00      0.1129788322E+01
          0                 5           2             4    7     1      -0.7341053537E-02       4    7    1        -0.3832612029E+00      0.9384356877E+00
          0                 6           2             4    7     1      -0.6047173758E-02       5    6    1        -0.3157213631E+00      0.7733407818E+00
          0                 7           2             4    7     1      -0.5017261681E-02       4    7    1        -0.2619372435E+00      0.6415996716E+00
          0                 8           2             4    7     1      -0.4177965286E-02       4    7    1        -0.2181198572E+00      0.5342748702E+00
          0                 9           2             4    7     1      -0.3490020574E-02       4    7    1        -0.1822041889E+00      0.4463007356E+00
          0                10           2             4    7     1      -0.2922664849E-02       4    7    1        -0.1525841311E+00      0.3737478197E+00
                                                   Max.-Head-Change                         Max.-Flux-Residual
  Residual-Control   Outer-Iter.   Inner-Iter.     Column Row Layer    Maximum-Head-Change  Column Row Layer    Maximum-Flux-Residual          L2-NORM 
          0                11           2             4    7     1      -0.2452541980E-02       4    7    1        -0.1280403312E+00      0.3136289156E+00
          0                12           2             4    7     1      -0.2061455944E-02       4    7    1        -0.1076227974E+00      0.2636178890E+00
          0                13           2             4    7     1      -0.1735131526E-02       4    7    1        -0.9058634390E-01      0.2218870249E+00
          0                14           2             4    7     1      -0.1462119534E-02       4    7    1        -0.7633315055E-01      0.1869745692E+00
          0                15           2             4    7     1      -0.1233243486E-02       4    7    1        -0.6438417473E-01      0.1577060932E+00
          0                16           2             4    7     1      -0.1040999919E-02       4    7    1        -0.5434767796E-01      0.1331221556E+00
          0                17           2             4    7     1      -0.8792890383E-03       4    7    1        -0.4590520717E-01      0.1124427100E+00
          0                18           2             4    7     1      -0.7431128356E-03       4    7    1        -0.3879583034E-01      0.9502861689E-01
          0                19           2             4    7     1      -0.6283312794E-03       4    7    1        -0.3280340800E-01      0.8035045242E-01
          0                20           2             4    7     1      -0.5314857584E-03       4    7    1        -0.2774737568E-01      0.6796593226E-01
                                                   Max.-Head-Change                         Max.-Flux-Residual
  Residual-Control   Outer-Iter.   Inner-Iter.     Column Row Layer    Maximum-Head-Change  Column Row Layer    Maximum-Flux-Residual          L2-NORM 
          0                21           2             4    7     1      -0.4497071305E-03       4    7    1        -0.2347794354E-01      0.5750815317E-01
          0                22           2             4    7     1      -0.3805975855E-03       5    7    1        -0.1987062290E-01      0.4867197443E-01
          0                23           2             4    7     1      -0.3222032587E-03       4    7    1        -0.1682132790E-01      0.4120292113E-01
          0                24           2             4    7     1      -0.2728213608E-03       4    7    1        -0.1424323491E-01      0.3488817127E-01
          0                25           2             4    7     1      -0.2310506709E-03       4    7    1        -0.1206250507E-01      0.2954655578E-01
          0                26           2             4    7     1      -0.1956978157E-03       4    7    1        -0.1021683199E-01      0.2502566535E-01
          0                27           2             4    7     1      -0.1657678422E-03       4    7    1        -0.8654272315E-02      0.2119824641E-01
          0                28           2             4    7     1      -0.1404286246E-03       4    7    1        -0.7331383098E-02      0.1795788954E-01
          0                29           2             4    7     1      -0.1189778925E-03       4    7    1        -0.6211500766E-02      0.1521478875E-01
          0                30           1             4    7     1      -0.1008099926E-03       4    7    1        -0.5263005805E-02      0.1289149352E-01
          0                31           1             4    7     1      -0.8541920759E-04       4    7    1        -0.4459496335E-02      0.1092333368E-01

    ------------------------------------------------
       NWT REQUIRED           31 OUTER ITERATIONS 
       AND A TOTAL OF         60 INNER ITERATIONS.
    ------------------------------------------------

 NO OUTPUT CONTROL FOR STRESS PERIOD   20   TIME STEP   11
 
 SOLVING FOR HEAD 
                                                   Max.-Head-Change                         Max.-Flux-Residual
  Residual-Control   Outer-Iter.   Inner-Iter.     Column Row Layer    Maximum-Head-Change  Column Row Layer    Maximum-Flux-Residual          L2-NORM 
          0                 1           2             4    7     1      -0.1431867710E+00       4    7    1        -0.7524065479E+01      0.1585794467E+02
          0                 2           2             5    8     1      -0.5588408387E-02       5    8    1        -0.3090755286E+00      0.7573689785E+00
          0                 3           2             4    7     1      -0.1225118005E-01       4    7    1        -0.6401063549E+00      0.1532257678E+01
          0                 4           2             4    7     1      -0.8810823145E-02       5    8    1        -0.4624466734E+00      0.1130181258E+01
          0                 5           2             4    7     1      -0.7340878744E-02       4    7    1        -0.3832507481E+00      0.9383964752E+00
          0                 6           2             4    7     1      -0.6047218493E-02       5    6    1        -0.3157232996E+00      0.7733446980E+00
          0                 7           2             4    7     1      -0.5017279803E-02       4    7    1        -0.2619371387E+00      0.6415992778E+00
          0                 8           2             4    7     1      -0.4177982282E-02       4    7    1        -0.2181198675E+00      0.5342749078E+00
          0                 9           2             4    7     1      -0.3490034580E-02       4    7    1        -0.1822041877E+00      0.4463007303E+00
          0                10           2             4    7     1      -0.2922676597E-02       4    7    1        -0.1525841311E+00      0.3737478190E+00
                                                   Max.-Head-Change                         Max.-Flux-Residual
  Residual-Control   Outer-Iter.   Inner-Iter.     Column Row Layer    Maximum-Head-Change  Column Row Layer    Maximum-Flux-Residual          L2-NORM 
          0                11           2             4    7     1      -0.2452551837E-02       4    7    1        -0.1280403312E+00      0.3136289146E+00
          0                12           2             4    7     1      -0.2061464228E-02       4    7    1        -0.1076227973E+00      0.2636178882E+00
          0                13           2             4    7     1      -0.1735138500E-02       4    7    1        -0.9058634383E-01      0.2218870242E+00
          0                14           2             4    7     1      -0.1462125410E-02       4    7    1        -0.7633315048E-01      0.1869745686E+00
          0                15           2             4    7     1      -0.1233248442E-02       4    7    1        -0.6438417469E-01      0.1577060928E+00
          0                16           2             4    7     1      -0.1041004104E-02       4    7    1        -0.5434767793E-01      0.1331221552E+00
          0                17           2             4    7     1      -0.8792925720E-03       4    7    1        -0.4590520713E-01      0.1124427097E+00
          0                18           2             4    7     1      -0.7431158223E-03       4    7    1        -0.3879583031E-01      0.9502861659E-01
          0                19           2             4    7     1      -0.6283338049E-03       4    7    1        -0.3280340798E-01      0.8035045218E-01
          0                20           2             4    7     1      -0.5314878944E-03       4    7    1        -0.2774737566E-01      0.6796593204E-01
                                                   Max.-Head-Change                         Max.-Flux-Residual
  Residual-Control   Outer-Iter.   Inner-Iter.     Column Row Layer    Maximum-Head-Change  Column Row Layer    Maximum-Flux-Residual          L2-NORM 
          0                21           2             4    7     1      -0.4497089379E-03       4    7    1        -0.2347794351E-01      0.5750815299E-01
          0                22           2             4    7     1      -0.3805991149E-03       5    7    1        -0.1987062285E-01      0.4867197428E-01
          0                23           2             4    7     1      -0.3222045531E-03       4    7    1        -0.1682132788E-01      0.4120292099E-01
          0                24           2             4    7     1      -0.2728224577E-03       4    7    1        -0.1424323493E-01      0.3488817118E-01
          0                25           2             4    7     1      -0.2310515996E-03       4    7    1        -0.1206250506E-01      0.2954655569E-01
          0                26           2             4    7     1      -0.1956986023E-03       4    7    1        -0.1021683197E-01      0.2502566527E-01
          0                27           2             4    7     1      -0.1657685084E-03       4    7    1        -0.8654272304E-02      0.2119824632E-01
          0                28           2             4    7     1      -0.1404291888E-03       4    7    1        -0.7331383091E-02      0.1795788947E-01
          0                29           2             4    7     1      -0.1189783707E-03       4    7    1        -0.6211500770E-02      0.1521478870E-01
          0                30           1             4    7     1      -0.1008103980E-03       4    7    1        -0.5263005812E-02      0.1289149345E-01
          0                31           1             4    7     1      -0.8541955086E-04       4    7    1        -0.4459496326E-02      0.1092333361E-01

    ------------------------------------------------
       NWT REQUIRED           31 OUTER ITERATIONS 
       AND A TOTAL OF         60 INNER ITERATIONS.
    ------------------------------------------------

 NO OUTPUT CONTROL FOR STRESS PERIOD   20   TIME STEP   12
 
 SOLVING FOR HEAD 
                                                   Max.-Head-Change                         Max.-Flux-Residual
  Residual-Control   Outer-Iter.   Inner-Iter.     Column Row Layer    Maximum-Head-Change  Column Row Layer    Maximum-Flux-Residual          L2-NORM 
          0                 1           2             4    7     1      -0.1411246916E+00       4    7    1        -0.7417958180E+01      0.1559130616E+02
          0                 2           2             5    8     1      -0.5935220750E-02       5    8    1        -0.3279953400E+00      0.8006358345E+00
          0                 3           2             4    7     1      -0.1223060339E-01       4    7    1        -0.6390463288E+00      0.1528484571E+01
          0                 4           2             4    7     1      -0.8812921923E-02       5    8    1        -0.4626342916E+00      0.1130562410E+01
          0                 5           2             4    7     1      -0.7340702541E-02       4    7    1        -0.3832401681E+00      0.9383584368E+00
          0                 6           2             4    7     1      -0.6047263888E-02       5    6    1        -0.3157251485E+00      0.7733484972E+00
          0                 7           2             4    7     1      -0.5017298290E-02       4    7    1        -0.2619370328E+00      0.6415988959E+00
          0                 8           2             4    7     1      -0.4177999601E-02       4    7    1        -0.2181198779E+00      0.5342749442E+00
          0                 9           2             4    7     1      -0.3490048854E-02       4    7    1        -0.1822041865E+00      0.4463007253E+00
          0                10           2             4    7     1      -0.2922688571E-02       4    7    1        -0.1525841311E+00      0.3737478183E+00
                                                   Max.-Head-Change                         Max.-Flux-Residual
  Residual-Control   Outer-Iter.   Inner-Iter.     Column Row Layer    Maximum-Head-Change  Column Row Layer    Maximum-Flux-Residual          L2-NORM 
          0                11           2             4    7     1      -0.2452561882E-02       4    7    1        -0.1280403310E+00      0.3136289137E+00
          0                12           2             4    7     1      -0.2061472672E-02       4    7    1        -0.1076227973E+00      0.2636178875E+00
          0                13           2             4    7     1      -0.1735145607E-02       4    7    1        -0.9058634378E-01      0.2218870236E+00
          0                14           2             4    7     1      -0.1462131398E-02       4    7    1        -0.7633315042E-01      0.1869745681E+00
          0                15           2             4    7     1      -0.1233253493E-02       4    7    1        -0.6438417463E-01      0.1577060923E+00
          0                16           2             4    7     1      -0.1041008367E-02       4    7    1        -0.5434767790E-01      0.1331221548E+00
          0                17           2             4    7     1      -0.8792961735E-03       4    7    1        -0.4590520709E-01      0.1124427094E+00
          0                18           2             4    7     1      -0.7431188659E-03       4    7    1        -0.3879583028E-01      0.9502861633E-01
          0                19           2             4    7     1      -0.6283363785E-03       4    7    1        -0.3280340795E-01      0.8035045194E-01
          0                20           2             4    7     1      -0.5314900713E-03       4    7    1        -0.2774737564E-01      0.6796593186E-01
                                                   Max.-Head-Change                         Max.-Flux-Residual
  Residual-Control   Outer-Iter.   Inner-Iter.     Column Row Layer    Maximum-Head-Change  Column Row Layer    Maximum-Flux-Residual          L2-NORM 
          0                21           2             4    7     1      -0.4497107797E-03       4    7    1        -0.2347794350E-01      0.5750815282E-01
          0                22           2             4    7     1      -0.3806006741E-03       5    7    1        -0.1987062281E-01      0.4867197415E-01
          0                23           2             4    7     1      -0.3222058728E-03       4    7    1        -0.1682132785E-01      0.4120292088E-01
          0                24           2             4    7     1      -0.2728235746E-03       4    7    1        -0.1424323490E-01      0.3488817107E-01
          0                25           2             4    7     1      -0.2310525461E-03       4    7    1        -0.1206250506E-01      0.2954655562E-01
          0                26           2             4    7     1      -0.1956994040E-03       4    7    1        -0.1021683197E-01      0.2502566521E-01
          0                27           2             4    7     1      -0.1657691872E-03       4    7    1        -0.8654272287E-02      0.2119824626E-01
          0                28           2             4    7     1      -0.1404297641E-03       4    7    1        -0.7331383085E-02      0.1795788943E-01
          0                29           2             4    7     1      -0.1189788580E-03       4    7    1        -0.6211500760E-02      0.1521478866E-01
          0                30           1             4    7     1      -0.1008108106E-03       4    7    1        -0.5263005796E-02      0.1289149342E-01
          0                31           1             4    7     1      -0.8541990102E-04       4    7    1        -0.4459496332E-02      0.1092333360E-01

    ------------------------------------------------
       NWT REQUIRED           31 OUTER ITERATIONS 
       AND A TOTAL OF         60 INNER ITERATIONS.
    ------------------------------------------------

 NO OUTPUT CONTROL FOR STRESS PERIOD   20   TIME STEP   13
 
 SOLVING FOR HEAD 
                                                   Max.-Head-Change                         Max.-Flux-Residual
  Residual-Control   Outer-Iter.   Inner-Iter.     Column Row Layer    Maximum-Head-Change  Column Row Layer    Maximum-Flux-Residual          L2-NORM 
          0                 1           2             4    7     1      -0.1390467524E+00       4    7    1        -0.7310820879E+01      0.1533816103E+02
          0                 2           2             5    8     1      -0.6265858678E-02       5    8    1        -0.3460170093E+00      0.8423074799E+00
          0                 3           2             4    7     1      -0.1220986901E-01       4    7    1        -0.6379759854E+00      0.1524823910E+01
          0                 4           2             4    7     1      -0.8815037159E-02       5    8    1        -0.4628130341E+00      0.1130932274E+01
          0                 5           2             4    7     1      -0.7340525255E-02       4    7    1        -0.3832294844E+00      0.9383215229E+00
          0                 6           2             4    7     1      -0.6047309855E-02       5    6    1        -0.3157269152E+00      0.7733521843E+00
          0                 7           2             4    7     1      -0.5017317105E-02       4    7    1        -0.2619369258E+00      0.6415985254E+00
          0                 8           2             4    7     1      -0.4178017206E-02       4    7    1        -0.2181198884E+00      0.5342749797E+00
          0                 9           2             4    7     1      -0.3490063366E-02       4    7    1        -0.1822041853E+00      0.4463007204E+00
          0                10           2             4    7     1      -0.2922700743E-02       4    7    1        -0.1525841311E+00      0.3737478177E+00
                                                   Max.-Head-Change                         Max.-Flux-Residual
  Residual-Control   Outer-Iter.   Inner-Iter.     Column Row Layer    Maximum-Head-Change  Column Row Layer    Maximum-Flux-Residual          L2-NORM 
          0                11           2             4    7     1      -0.2452572094E-02       4    7    1        -0.1280403309E+00      0.3136289128E+00
          0                12           2             4    7     1      -0.2061481256E-02       4    7    1        -0.1076227972E+00      0.2636178868E+00
          0                13           2             4    7     1      -0.1735152832E-02       4    7    1        -0.9058634369E-01      0.2218870230E+00
          0                14           2             4    7     1      -0.1462137487E-02       4    7    1        -0.7633315037E-01      0.1869745676E+00
          0                15           2             4    7     1      -0.1233258628E-02       4    7    1        -0.6438417457E-01      0.1577060919E+00
          0                16           2             4    7     1      -0.1041012703E-02       4    7    1        -0.5434767787E-01      0.1331221545E+00
          0                17           2             4    7     1      -0.8792998349E-03       4    7    1        -0.4590520705E-01      0.1124427091E+00
          0                18           2             4    7     1      -0.7431219605E-03       4    7    1        -0.3879583025E-01      0.9502861609E-01
          0                19           2             4    7     1      -0.6283389949E-03       4    7    1        -0.3280340791E-01      0.8035045175E-01
          0                20           2             4    7     1      -0.5314922844E-03       4    7    1        -0.2774737561E-01      0.6796593167E-01
                                                   Max.-Head-Change                         Max.-Flux-Residual
  Residual-Control   Outer-Iter.   Inner-Iter.     Column Row Layer    Maximum-Head-Change  Column Row Layer    Maximum-Flux-Residual          L2-NORM 
          0                21           2             4    7     1      -0.4497126527E-03       4    7    1        -0.2347794348E-01      0.5750815268E-01
          0                22           2             4    7     1      -0.3806022583E-03       5    7    1        -0.1987062276E-01      0.4867197403E-01
          0                23           2             4    7     1      -0.3222072146E-03       4    7    1        -0.1682132785E-01      0.4120292078E-01
          0                24           2             4    7     1      -0.2728247107E-03       4    7    1        -0.1424323489E-01      0.3488817098E-01
          0                25           2             4    7     1      -0.2310535085E-03       4    7    1        -0.1206250506E-01      0.2954655554E-01
          0                26           2             4    7     1      -0.1957002186E-03       4    7    1        -0.1021683195E-01      0.2502566513E-01
          0                27           2             4    7     1      -0.1657698775E-03       4    7    1        -0.8654272291E-02      0.2119824622E-01
          0                28           2             4    7     1      -0.1404303490E-03       4    7    1        -0.7331383084E-02      0.1795788939E-01
          0                29           2             4    7     1      -0.1189793534E-03       4    7    1        -0.6211500750E-02      0.1521478862E-01
          0                30           1             4    7     1      -0.1008112308E-03       4    7    1        -0.5263005795E-02      0.1289149340E-01
          0                31           1             4    7     1      -0.8542025643E-04       4    7    1        -0.4459496308E-02      0.1092333358E-01

    ------------------------------------------------
       NWT REQUIRED           31 OUTER ITERATIONS 
       AND A TOTAL OF         60 INNER ITERATIONS.
    ------------------------------------------------

 NO OUTPUT CONTROL FOR STRESS PERIOD   20   TIME STEP   14
 
 SOLVING FOR HEAD 
                                                   Max.-Head-Change                         Max.-Flux-Residual
  Residual-Control   Outer-Iter.   Inner-Iter.     Column Row Layer    Maximum-Head-Change  Column Row Layer    Maximum-Flux-Residual          L2-NORM 
          0                 1           2             4    7     1      -0.1369566814E+00       4    7    1        -0.7202861837E+01      0.1509766748E+02
          0                 2           2             5    8     1      -0.6581339752E-02       5    8    1        -0.3631976293E+00      0.8824560209E+00
          0                 3           2             4    7     1      -0.1218901409E-01       4    7    1        -0.6368974066E+00      0.1521270835E+01
          0                 4           2             4    7     1      -0.8817165053E-02       5    8    1        -0.4629834646E+00      0.1131291319E+01
          0                 5           2             4    7     1      -0.7340347199E-02       4    7    1        -0.3832187178E+00      0.9382856868E+00
          0                 6           2             4    7     1      -0.6047356308E-02       5    6    1        -0.3157286044E+00      0.7733557640E+00
          0                 7           2             4    7     1      -0.5017336210E-02       4    7    1        -0.2619368180E+00      0.6415981659E+00
          0                 8           2             4    7     1      -0.4178035065E-02       4    7    1        -0.2181198990E+00      0.5342750143E+00
          0                 9           2             4    7     1      -0.3490078089E-02       4    7    1        -0.1822041841E+00      0.4463007158E+00
          0                10           2             4    7     1      -0.2922713092E-02       4    7    1        -0.1525841310E+00      0.3737478172E+00
                                                   Max.-Head-Change                         Max.-Flux-Residual
  Residual-Control   Outer-Iter.   Inner-Iter.     Column Row Layer    Maximum-Head-Change  Column Row Layer    Maximum-Flux-Residual          L2-NORM 
          0                11           2             4    7     1      -0.2452582455E-02       4    7    1        -0.1280403308E+00      0.3136289121E+00
          0                12           2             4    7     1      -0.2061489965E-02       4    7    1        -0.1076227971E+00      0.2636178862E+00
          0                13           2             4    7     1      -0.1735160163E-02       4    7    1        -0.9058634364E-01      0.2218870225E+00
          0                14           2             4    7     1      -0.1462143663E-02       4    7    1        -0.7633315030E-01      0.1869745672E+00
          0                15           2             4    7     1      -0.1233263839E-02       4    7    1        -0.6438417455E-01      0.1577060916E+00
          0                16           2             4    7     1      -0.1041017100E-02       4    7    1        -0.5434767782E-01      0.1331221542E+00
          0                17           2             4    7     1      -0.8793035496E-03       4    7    1        -0.4590520703E-01      0.1124427088E+00
          0                18           2             4    7     1      -0.7431250995E-03       4    7    1        -0.3879583023E-01      0.9502861588E-01
          0                19           2             4    7     1      -0.6283416494E-03       4    7    1        -0.3280340791E-01      0.8035045158E-01
          0                20           2             4    7     1      -0.5314945297E-03       4    7    1        -0.2774737560E-01      0.6796593153E-01
                                                   Max.-Head-Change                         Max.-Flux-Residual
  Residual-Control   Outer-Iter.   Inner-Iter.     Column Row Layer    Maximum-Head-Change  Column Row Layer    Maximum-Flux-Residual          L2-NORM 
          0                21           2             4    7     1      -0.4497145525E-03       4    7    1        -0.2347794347E-01      0.5750815255E-01
          0                22           2             4    7     1      -0.3806038660E-03       5    7    1        -0.1987062273E-01      0.4867197390E-01
          0                23           2             4    7     1      -0.3222085764E-03       4    7    1        -0.1682132784E-01      0.4120292069E-01
          0                24           2             4    7     1      -0.2728258629E-03       4    7    1        -0.1424323486E-01      0.3488817088E-01
          0                25           2             4    7     1      -0.2310544843E-03       4    7    1        -0.1206250504E-01      0.2954655546E-01
          0                26           2             4    7     1      -0.1957010455E-03       4    7    1        -0.1021683195E-01      0.2502566506E-01
          0                27           2             4    7     1      -0.1657705778E-03       4    7    1        -0.8654272284E-02      0.2119824618E-01
          0                28           2             4    7     1      -0.1404309424E-03       4    7    1        -0.7331383077E-02      0.1795788934E-01
          0                29           2             4    7     1      -0.1189798558E-03       4    7    1        -0.6211500740E-02      0.1521478859E-01
          0                30           1             4    7     1      -0.1008116562E-03       4    7    1        -0.5263005792E-02      0.1289149336E-01
          0                31           1             4    7     1      -0.8542061784E-04       4    7    1        -0.4459496333E-02      0.1092333355E-01

    ------------------------------------------------
       NWT REQUIRED           31 OUTER ITERATIONS 
       AND A TOTAL OF         60 INNER ITERATIONS.
    ------------------------------------------------

 NO OUTPUT CONTROL FOR STRESS PERIOD   20   TIME STEP   15
 
 SOLVING FOR HEAD 
                                                   Max.-Head-Change                         Max.-Flux-Residual
  Residual-Control   Outer-Iter.   Inner-Iter.     Column Row Layer    Maximum-Head-Change  Column Row Layer    Maximum-Flux-Residual          L2-NORM 
          0                 1           2             4    7     1      -0.1348577941E+00       4    7    1        -0.7094267023E+01      0.1486902058E+02
          0                 2           2             5    8     1      -0.6882618942E-02       5    8    1        -0.3795907450E+00      0.9211529991E+00
          0                 3           2             4    7     1      -0.1216807169E-01       4    7    1        -0.6358124518E+00      0.1517820532E+01
          0                 4           2             4    7     1      -0.8819302227E-02       5    8    1        -0.4631461115E+00      0.1131640009E+01
          0                 5           2             4    7     1      -0.7340168651E-02       4    7    1        -0.3832078871E+00      0.9382508821E+00
          0                 6           2             4    7     1      -0.6047403171E-02       5    6    1        -0.3157302210E+00      0.7733592409E+00
          0                 7           2             4    7     1      -0.5017355572E-02       4    7    1        -0.2619367095E+00      0.6415978168E+00
          0                 8           2             4    7     1      -0.4178053147E-02       4    7    1        -0.2181199097E+00      0.5342750480E+00
          0                 9           2             4    7     1      -0.3490092997E-02       4    7    1        -0.1822041829E+00      0.4463007115E+00
          0                10           2             4    7     1      -0.2922725597E-02       4    7    1        -0.1525841311E+00      0.3737478168E+00
                                                   Max.-Head-Change                         Max.-Flux-Residual
  Residual-Control   Outer-Iter.   Inner-Iter.     Column Row Layer    Maximum-Head-Change  Column Row Layer    Maximum-Flux-Residual          L2-NORM 
          0                11           2             4    7     1      -0.2452592946E-02       4    7    1        -0.1280403307E+00      0.3136289114E+00
          0                12           2             4    7     1      -0.2061498783E-02       4    7    1        -0.1076227970E+00      0.2636178857E+00
          0                13           2             4    7     1      -0.1735167585E-02       4    7    1        -0.9058634358E-01      0.2218870221E+00
          0                14           2             4    7     1      -0.1462149918E-02       4    7    1        -0.7633315026E-01      0.1869745668E+00
          0                15           2             4    7     1      -0.1233269114E-02       4    7    1        -0.6438417450E-01      0.1577060912E+00
          0                16           2             4    7     1      -0.1041021553E-02       4    7    1        -0.5434767779E-01      0.1331221539E+00
          0                17           2             4    7     1      -0.8793073111E-03       4    7    1        -0.4590520699E-01      0.1124427086E+00
          0                18           2             4    7     1      -0.7431282783E-03       4    7    1        -0.3879583019E-01      0.9502861566E-01
          0                19           2             4    7     1      -0.6283443370E-03       4    7    1        -0.3280340788E-01      0.8035045141E-01
          0                20           2             4    7     1      -0.5314968034E-03       4    7    1        -0.2774737558E-01      0.6796593140E-01
                                                   Max.-Head-Change                         Max.-Flux-Residual
  Residual-Control   Outer-Iter.   Inner-Iter.     Column Row Layer    Maximum-Head-Change  Column Row Layer    Maximum-Flux-Residual          L2-NORM 
          0                21           2             4    7     1      -0.4497164757E-03       4    7    1        -0.2347794344E-01      0.5750815244E-01
          0                22           2             4    7     1      -0.3806054941E-03       5    7    1        -0.1987062271E-01      0.4867197381E-01
          0                23           2             4    7     1      -0.3222099545E-03       4    7    1        -0.1682132784E-01      0.4120292061E-01
          0                24           2             4    7     1      -0.2728270299E-03       4    7    1        -0.1424323486E-01      0.3488817082E-01
          0                25           2             4    7     1      -0.2310554726E-03       4    7    1        -0.1206250505E-01      0.2954655541E-01
          0                26           2             4    7     1      -0.1957018828E-03       4    7    1        -0.1021683196E-01      0.2502566501E-01
          0                27           2             4    7     1      -0.1657712870E-03       4    7    1        -0.8654272281E-02      0.2119824613E-01
          0                28           2             4    7     1      -0.1404315429E-03       4    7    1        -0.7331383070E-02      0.1795788930E-01
          0                29           2             4    7     1      -0.1189803649E-03       4    7    1        -0.6211500749E-02      0.1521478857E-01
          0                30           1             4    7     1      -0.1008120875E-03       4    7    1        -0.5263005792E-02      0.1289149333E-01
          0                31           1             4    7     1      -0.8542098262E-04       4    7    1        -0.4459496325E-02      0.1092333354E-01

    ------------------------------------------------
       NWT REQUIRED           31 OUTER ITERATIONS 
       AND A TOTAL OF         60 INNER ITERATIONS.
    ------------------------------------------------

 NO OUTPUT CONTROL FOR STRESS PERIOD   20   TIME STEP   16
 
 SOLVING FOR HEAD 
                                                   Max.-Head-Change                         Max.-Flux-Residual
  Residual-Control   Outer-Iter.   Inner-Iter.     Column Row Layer    Maximum-Head-Change  Column Row Layer    Maximum-Flux-Residual          L2-NORM 
          0                 1           2             4    7     1      -0.1327535450E+00       4    7    1        -0.6985230174E+01      0.1465151907E+02
          0                 2           2             5    8     1      -0.7170580047E-02       5    8    1        -0.3952458723E+00      0.9584705678E+00
          0                 3           2             4    7     1      -0.1214707627E-01       4    7    1        -0.6347230573E+00      0.1514468673E+01
          0                 4           2             4    7     1      -0.8821445160E-02       5    8    1        -0.4633014637E+00      0.1131978768E+01
          0                 5           2             4    7     1      -0.7339989903E-02       4    7    1        -0.3831970114E+00      0.9382170668E+00
          0                 6           2             4    7     1      -0.6047450363E-02       5    6    1        -0.3157317689E+00      0.7733626191E+00
          0                 7           2             4    7     1      -0.5017375157E-02       4    7    1        -0.2619366006E+00      0.6415974778E+00
          0                 8           2             4    7     1      -0.4178071420E-02       4    7    1        -0.2181199204E+00      0.5342750808E+00
          0                 9           2             4    7     1      -0.3490108064E-02       4    7    1        -0.1822041817E+00      0.4463007073E+00
          0                10           2             4    7     1      -0.2922738234E-02       4    7    1        -0.1525841311E+00      0.3737478165E+00
                                                   Max.-Head-Change                         Max.-Flux-Residual
  Residual-Control   Outer-Iter.   Inner-Iter.     Column Row Layer    Maximum-Head-Change  Column Row Layer    Maximum-Flux-Residual          L2-NORM 
          0                11           2             4    7     1      -0.2452603549E-02       4    7    1        -0.1280403306E+00      0.3136289108E+00
          0                12           2             4    7     1      -0.2061507695E-02       4    7    1        -0.1076227970E+00      0.2636178852E+00
          0                13           2             4    7     1      -0.1735175086E-02       4    7    1        -0.9058634351E-01      0.2218870217E+00
          0                14           2             4    7     1      -0.1462156239E-02       4    7    1        -0.7633315019E-01      0.1869745665E+00
          0                15           2             4    7     1      -0.1233274445E-02       4    7    1        -0.6438417445E-01      0.1577060909E+00
          0                16           2             4    7     1      -0.1041026054E-02       4    7    1        -0.5434767777E-01      0.1331221537E+00
          0                17           2             4    7     1      -0.8793111126E-03       4    7    1        -0.4590520698E-01      0.1124427084E+00
          0                18           2             4    7     1      -0.7431314911E-03       4    7    1        -0.3879583017E-01      0.9502861551E-01
          0                19           2             4    7     1      -0.6283470536E-03       4    7    1        -0.3280340785E-01      0.8035045125E-01
          0                20           2             4    7     1      -0.5314991011E-03       4    7    1        -0.2774737555E-01      0.6796593127E-01
                                                   Max.-Head-Change                         Max.-Flux-Residual
  Residual-Control   Outer-Iter.   Inner-Iter.     Column Row Layer    Maximum-Head-Change  Column Row Layer    Maximum-Flux-Residual          L2-NORM 
          0                21           2             4    7     1      -0.4497184200E-03       4    7    1        -0.2347794342E-01      0.5750815232E-01
          0                22           2             4    7     1      -0.3806071390E-03       5    7    1        -0.1987062269E-01      0.4867197372E-01
          0                23           2             4    7     1      -0.3222113474E-03       4    7    1        -0.1682132783E-01      0.4120292055E-01
          0                24           2             4    7     1      -0.2728282100E-03       4    7    1        -0.1424323487E-01      0.3488817076E-01
          0                25           2             4    7     1      -0.2310564714E-03       4    7    1        -0.1206250503E-01      0.2954655535E-01
          0                26           2             4    7     1      -0.1957027287E-03       4    7    1        -0.1021683194E-01      0.2502566499E-01
          0                27           2             4    7     1      -0.1657720038E-03       4    7    1        -0.8654272276E-02      0.2119824609E-01
          0                28           2             4    7     1      -0.1404321498E-03       4    7    1        -0.7331383061E-02      0.1795788927E-01
          0                29           2             4    7     1      -0.1189808795E-03       4    7    1        -0.6211500744E-02      0.1521478852E-01
          0                30           1             4    7     1      -0.1008125234E-03       4    7    1        -0.5263005781E-02      0.1289149332E-01
          0                31           1             4    7     1      -0.8542135216E-04       4    7    1        -0.4459496317E-02      0.1092333350E-01

    ------------------------------------------------
       NWT REQUIRED           31 OUTER ITERATIONS 
       AND A TOTAL OF         60 INNER ITERATIONS.
    ------------------------------------------------

 NO OUTPUT CONTROL FOR STRESS PERIOD   20   TIME STEP   17
 
 SOLVING FOR HEAD 
                                                   Max.-Head-Change                         Max.-Flux-Residual
  Residual-Control   Outer-Iter.   Inner-Iter.     Column Row Layer    Maximum-Head-Change  Column Row Layer    Maximum-Flux-Residual          L2-NORM 
          0                 1           2             4    7     1      -0.1306466020E+00       4    7    1        -0.6875901238E+01      0.1444449099E+02
          0                 2           2             5    8     1      -0.7446026876E-02       5    8    1        -0.4102080559E+00      0.9944749880E+00
          0                 3           2             4    7     1      -0.1212605442E-01       4    7    1        -0.6336307226E+00      0.1511211113E+01
          0                 4           2             4    7     1      -0.8823591132E-02       5    8    1        -0.4634499658E+00      0.1132307999E+01
          0                 5           2             4    7     1      -0.7339811177E-02       4    7    1        -0.3831861059E+00      0.9381842004E+00
          0                 6           2             4    7     1      -0.6047497821E-02       5    6    1        -0.3157332524E+00      0.7733659026E+00
          0                 7           2             4    7     1      -0.5017394940E-02       4    7    1        -0.2619364915E+00      0.6415971483E+00
          0                 8           2             4    7     1      -0.4178089858E-02       4    7    1        -0.2181199312E+00      0.5342751128E+00
          0                 9           2             4    7     1      -0.3490123270E-02       4    7    1        -0.1822041805E+00      0.4463007032E+00
          0                10           2             4    7     1      -0.2922750987E-02       4    7    1        -0.1525841311E+00      0.3737478162E+00
                                                   Max.-Head-Change                         Max.-Flux-Residual
  Residual-Control   Outer-Iter.   Inner-Iter.     Column Row Layer    Maximum-Head-Change  Column Row Layer    Maximum-Flux-Residual          L2-NORM 
          0                11           2             4    7     1      -0.2452614249E-02       4    7    1        -0.1280403306E+00      0.3136289103E+00
          0                12           2             4    7     1      -0.2061516689E-02       4    7    1        -0.1076227969E+00      0.2636178848E+00
          0                13           2             4    7     1      -0.1735182656E-02       4    7    1        -0.9058634346E-01      0.2218870213E+00
          0                14           2             4    7     1      -0.1462162618E-02       4    7    1        -0.7633315018E-01      0.1869745662E+00
          0                15           2             4    7     1      -0.1233279826E-02       4    7    1        -0.6438417443E-01      0.1577060907E+00
          0                16           2             4    7     1      -0.1041030595E-02       4    7    1        -0.5434767771E-01      0.1331221535E+00
          0                17           2             4    7     1      -0.8793149488E-03       4    7    1        -0.4590520696E-01      0.1124427082E+00
          0                18           2             4    7     1      -0.7431347329E-03       4    7    1        -0.3879583015E-01      0.9502861535E-01
          0                19           2             4    7     1      -0.6283497953E-03       4    7    1        -0.3280340786E-01      0.8035045112E-01
          0                20           2             4    7     1      -0.5315014197E-03       4    7    1        -0.2774737553E-01      0.6796593114E-01
                                                   Max.-Head-Change                         Max.-Flux-Residual
  Residual-Control   Outer-Iter.   Inner-Iter.     Column Row Layer    Maximum-Head-Change  Column Row Layer    Maximum-Flux-Residual          L2-NORM 
          0                21           2             4    7     1      -0.4497203821E-03       4    7    1        -0.2347794342E-01      0.5750815224E-01
          0                22           2             4    7     1      -0.3806087996E-03       5    7    1        -0.1987062267E-01      0.4867197365E-01
          0                23           2             4    7     1      -0.3222127531E-03       4    7    1        -0.1682132781E-01      0.4120292047E-01
          0                24           2             4    7     1      -0.2728293999E-03       4    7    1        -0.1424323484E-01      0.3488817071E-01
          0                25           2             4    7     1      -0.2310574795E-03       4    7    1        -0.1206250502E-01      0.2954655531E-01
          0                26           2             4    7     1      -0.1957035827E-03       4    7    1        -0.1021683195E-01      0.2502566495E-01
          0                27           2             4    7     1      -0.1657727268E-03       4    7    1        -0.8654272265E-02      0.2119824605E-01
          0                28           2             4    7     1      -0.1404327629E-03       4    7    1        -0.7331383066E-02      0.1795788924E-01
          0                29           2             4    7     1      -0.1189813983E-03       4    7    1        -0.6211500728E-02      0.1521478849E-01
          0                30           1             4    7     1      -0.1008129632E-03       4    7    1        -0.5263005783E-02      0.1289149329E-01
          0                31           1             4    7     1      -0.8542172483E-04       4    7    1        -0.4459496317E-02      0.1092333348E-01

    ------------------------------------------------
       NWT REQUIRED           31 OUTER ITERATIONS 
       AND A TOTAL OF         60 INNER ITERATIONS.
    ------------------------------------------------

 NO OUTPUT CONTROL FOR STRESS PERIOD   20   TIME STEP   18
 
 SOLVING FOR HEAD 
                                                   Max.-Head-Change                         Max.-Flux-Residual
  Residual-Control   Outer-Iter.   Inner-Iter.     Column Row Layer    Maximum-Head-Change  Column Row Layer    Maximum-Flux-Residual          L2-NORM 
          0                 1           2             4    7     1      -0.1285398103E+00       4    7    1        -0.6766440370E+01      0.1424731832E+02
          0                 2           2             5    8     1      -0.7709746081E-02       5    8    1        -0.4245213184E+00      0.1029230098E+01
          0                 3           2             4    7     1      -0.1210503453E-01       4    7    1        -0.6325370485E+00      0.1508043948E+01
          0                 4           2             4    7     1      -0.8825737242E-02       5    8    1        -0.4635920526E+00      0.1132628088E+01
          0                 5           2             4    7     1      -0.7339632711E-02       4    7    1        -0.3831751865E+00      0.9381522448E+00
          0                 6           2             4    7     1      -0.6047545479E-02       5    6    1        -0.3157346748E+00      0.7733690953E+00
          0                 7           2             4    7     1      -0.5017414889E-02       4    7    1        -0.2619363822E+00      0.6415968280E+00
          0                 8           2             4    7     1      -0.4178108436E-02       4    7    1        -0.2181199420E+00      0.5342751439E+00
          0                 9           2             4    7     1      -0.3490138592E-02       4    7    1        -0.1822041794E+00      0.4463006994E+00
          0                10           2             4    7     1      -0.2922763837E-02       4    7    1        -0.1525841311E+00      0.3737478159E+00
                                                   Max.-Head-Change                         Max.-Flux-Residual
  Residual-Control   Outer-Iter.   Inner-Iter.     Column Row Layer    Maximum-Head-Change  Column Row Layer    Maximum-Flux-Residual          L2-NORM 
          0                11           2             4    7     1      -0.2452625030E-02       4    7    1        -0.1280403305E+00      0.3136289098E+00
          0                12           2             4    7     1      -0.2061525751E-02       4    7    1        -0.1076227969E+00      0.2636178844E+00
          0                13           2             4    7     1      -0.1735190284E-02       4    7    1        -0.9058634340E-01      0.2218870210E+00
          0                14           2             4    7     1      -0.1462169046E-02       4    7    1        -0.7633315012E-01      0.1869745659E+00
          0                15           2             4    7     1      -0.1233285247E-02       4    7    1        -0.6438417439E-01      0.1577060905E+00
          0                16           2             4    7     1      -0.1041035172E-02       4    7    1        -0.5434767770E-01      0.1331221533E+00
          0                17           2             4    7     1      -0.8793188140E-03       4    7    1        -0.4590520693E-01      0.1124427081E+00
          0                18           2             4    7     1      -0.7431380001E-03       4    7    1        -0.3879583014E-01      0.9502861522E-01
          0                19           2             4    7     1      -0.6283525569E-03       4    7    1        -0.3280340783E-01      0.8035045102E-01
          0                20           2             4    7     1      -0.5315037567E-03       4    7    1        -0.2774737555E-01      0.6796593106E-01
                                                   Max.-Head-Change                         Max.-Flux-Residual
  Residual-Control   Outer-Iter.   Inner-Iter.     Column Row Layer    Maximum-Head-Change  Column Row Layer    Maximum-Flux-Residual          L2-NORM 
          0                21           2             4    7     1      -0.4497223590E-03       4    7    1        -0.2347794340E-01      0.5750815216E-01
          0                22           2             4    7     1      -0.3806104725E-03       5    7    1        -0.1987062265E-01      0.4867197358E-01
          0                23           2             4    7     1      -0.3222141698E-03       4    7    1        -0.1682132781E-01      0.4120292042E-01
          0                24           2             4    7     1      -0.2728305993E-03       4    7    1        -0.1424323484E-01      0.3488817066E-01
          0                25           2             4    7     1      -0.2310584953E-03       4    7    1        -0.1206250502E-01      0.2954655526E-01
          0                26           2             4    7     1      -0.1957044430E-03       4    7    1        -0.1021683193E-01      0.2502566491E-01
          0                27           2             4    7     1      -0.1657734555E-03       4    7    1        -0.8654272260E-02      0.2119824602E-01
          0                28           2             4    7     1      -0.1404333801E-03       4    7    1        -0.7331383063E-02      0.1795788922E-01
          0                29           2             4    7     1      -0.1189819215E-03       4    7    1        -0.6211500737E-02      0.1521478847E-01
          0                30           1             4    7     1      -0.1008134064E-03       4    7    1        -0.5263005778E-02      0.1289149326E-01
          0                31           1             4    7     1      -0.8542210050E-04       4    7    1        -0.4459496316E-02      0.1092333348E-01

    ------------------------------------------------
       NWT REQUIRED           31 OUTER ITERATIONS 
       AND A TOTAL OF         60 INNER ITERATIONS.
    ------------------------------------------------

 NO OUTPUT CONTROL FOR STRESS PERIOD   20   TIME STEP   19
 
 SOLVING FOR HEAD 
                                                   Max.-Head-Change                         Max.-Flux-Residual
  Residual-Control   Outer-Iter.   Inner-Iter.     Column Row Layer    Maximum-Head-Change  Column Row Layer    Maximum-Flux-Residual          L2-NORM 
          0                 1           2             4    7     1      -0.1264356518E+00       4    7    1        -0.6656987778E+01      0.1405942390E+02
          0                 2           2             5    8     1      -0.7962425742E-02       5    8    1        -0.4382241050E+00      0.1062797989E+01
          0                 3           2             4    7     1      -0.1208404133E-01       4    7    1        -0.6314434370E+00      0.1504963379E+01
          0                 4           2             4    7     1      -0.8827880960E-02       5    8    1        -0.4637281037E+00      0.1132939410E+01
          0                 5           2             4    7     1      -0.7339454711E-02       4    7    1        -0.3831642673E+00      0.9381211626E+00
          0                 6           2             4    7     1      -0.6047593279E-02       5    6    1        -0.3157360400E+00      0.7733722010E+00
          0                 7           2             4    7     1      -0.5017434980E-02       4    7    1        -0.2619362729E+00      0.6415965166E+00
          0                 8           2             4    7     1      -0.4178127129E-02       4    7    1        -0.2181199528E+00      0.5342751744E+00
          0                 9           2             4    7     1      -0.3490154009E-02       4    7    1        -0.1822041782E+00      0.4463006958E+00
          0                10           2             4    7     1      -0.2922776769E-02       4    7    1        -0.1525841312E+00      0.3737478158E+00
                                                   Max.-Head-Change                         Max.-Flux-Residual
  Residual-Control   Outer-Iter.   Inner-Iter.     Column Row Layer    Maximum-Head-Change  Column Row Layer    Maximum-Flux-Residual          L2-NORM 
          0                11           2             4    7     1      -0.2452635880E-02       4    7    1        -0.1280403304E+00      0.3136289095E+00
          0                12           2             4    7     1      -0.2061534870E-02       4    7    1        -0.1076227968E+00      0.2636178842E+00
          0                13           2             4    7     1      -0.1735197960E-02       4    7    1        -0.9058634337E-01      0.2218870207E+00
          0                14           2             4    7     1      -0.1462175514E-02       4    7    1        -0.7633315009E-01      0.1869745658E+00
          0                15           2             4    7     1      -0.1233290703E-02       4    7    1        -0.6438417437E-01      0.1577060905E+00
          0                16           2             4    7     1      -0.1041039777E-02       4    7    1        -0.5434767766E-01      0.1331221531E+00
          0                17           2             4    7     1      -0.8793227040E-03       4    7    1        -0.4590520690E-01      0.1124427083E+00
          0                18           2             4    7     1      -0.7431412873E-03       4    7    1        -0.3879583010E-01      0.9502861535E-01
          0                19           2             4    7     1      -0.6283553370E-03       4    7    1        -0.3280340780E-01      0.8035045094E-01
          0                20           2             4    7     1      -0.5315061074E-03       4    7    1        -0.2774737550E-01      0.6796593148E-01
                                                   Max.-Head-Change                         Max.-Flux-Residual
  Residual-Control   Outer-Iter.   Inner-Iter.     Column Row Layer    Maximum-Head-Change  Column Row Layer    Maximum-Flux-Residual          L2-NORM 
          0                21           2             4    7     1      -0.4497243484E-03       4    7    1        -0.2347794339E-01      0.5750815246E-01
          0                22           2             4    7     1      -0.3806121563E-03       5    7    1        -0.1987062264E-01      0.4867197356E-01
          0                23           2             4    7     1      -0.3222155950E-03       4    7    1        -0.1682132780E-01      0.4120292124E-01
          0                24           2             4    7     1      -0.2728318063E-03       4    7    1        -0.1424323483E-01      0.3488817117E-01
          0                25           2             4    7     1      -0.2310595172E-03       4    7    1        -0.1206250500E-01      0.2954655527E-01
          0                26           2             4    7     1      -0.1957053087E-03       4    7    1        -0.1021683193E-01      0.2502566489E-01
          0                27           2             4    7     1      -0.1657741888E-03       4    7    1        -0.8654272249E-02      0.2119824767E-01
          0                28           2             4    7     1      -0.1404340011E-03       4    7    1        -0.7331383052E-02      0.1795789020E-01
          0                29           2             4    7     1      -0.1189824479E-03       4    7    1        -0.6211500739E-02      0.1521478857E-01
          0                30           1             4    7     1      -0.1008138526E-03       4    7    1        -0.5263005784E-02      0.1289149327E-01
          0                31           1             4    7     1      -0.8542247816E-04       4    7    1        -0.4459496310E-02      0.1092333670E-01

    ------------------------------------------------
       NWT REQUIRED           31 OUTER ITERATIONS 
       AND A TOTAL OF         60 INNER ITERATIONS.
    ------------------------------------------------

 NO OUTPUT CONTROL FOR STRESS PERIOD   20   TIME STEP   20
 
 SOLVING FOR HEAD 
                                                   Max.-Head-Change                         Max.-Flux-Residual
  Residual-Control   Outer-Iter.   Inner-Iter.     Column Row Layer    Maximum-Head-Change  Column Row Layer    Maximum-Flux-Residual          L2-NORM 
          0                 1           2             4    7     1      -0.1243362819E+00       4    7    1        -0.6547664859E+01      0.1388029989E+02
          0                 2           2             5    8     1      -0.8204716729E-02       5    8    1        -0.4513528754E+00      0.1095235911E+01
          0                 3           2             4    7     1      -0.1206309633E-01       4    7    1        -0.6303511019E+00      0.1501966090E+01
          0                 4           2             4    7     1      -0.8830020085E-02       5    8    1        -0.4638584789E+00      0.1133242294E+01
          0                 5           2             4    7     1      -0.7339277358E-02       4    7    1        -0.3831533604E+00      0.9380909209E+00
          0                 6           2             4    7     1      -0.6047641167E-02       5    6    1        -0.3157373509E+00      0.7733752228E+00
          0                 7           2             4    7     1      -0.5017455189E-02       4    7    1        -0.2619361637E+00      0.6415962138E+00
          0                 8           2             4    7     1      -0.4178145917E-02       4    7    1        -0.2181199636E+00      0.5342752040E+00
          0                 9           2             4    7     1      -0.3490169507E-02       4    7    1        -0.1822041770E+00      0.4463006923E+00
          0                10           2             4    7     1      -0.2922789767E-02       4    7    1        -0.1525841312E+00      0.3737478157E+00
                                                   Max.-Head-Change                         Max.-Flux-Residual
  Residual-Control   Outer-Iter.   Inner-Iter.     Column Row Layer    Maximum-Head-Change  Column Row Layer    Maximum-Flux-Residual          L2-NORM 
          0                11           2             4    7     1      -0.2452646785E-02       4    7    1        -0.1280403303E+00      0.3136289090E+00
          0                12           2             4    7     1      -0.2061544036E-02       4    7    1        -0.1076227968E+00      0.2636178838E+00
          0                13           2             4    7     1      -0.1735205675E-02       4    7    1        -0.9058634333E-01      0.2218870205E+00
          0                14           2             4    7     1      -0.1462182016E-02       4    7    1        -0.7633315006E-01      0.1869745655E+00
          0                15           2             4    7     1      -0.1233296187E-02       4    7    1        -0.6438417433E-01      0.1577060901E+00
          0                16           2             4    7     1      -0.1041044406E-02       4    7    1        -0.5434767764E-01      0.1331221530E+00
          0                17           2             4    7     1      -0.8793266138E-03       4    7    1        -0.4590520689E-01      0.1124427078E+00
          0                18           2             4    7     1      -0.7431445921E-03       4    7    1        -0.3879583011E-01      0.9502861499E-01
          0                19           2             4    7     1      -0.6283581306E-03       4    7    1        -0.3280340778E-01      0.8035045085E-01
          0                20           2             4    7     1      -0.5315084706E-03       4    7    1        -0.2774737550E-01      0.6796593090E-01
                                                   Max.-Head-Change                         Max.-Flux-Residual
  Residual-Control   Outer-Iter.   Inner-Iter.     Column Row Layer    Maximum-Head-Change  Column Row Layer    Maximum-Flux-Residual          L2-NORM 
          0                21           2             4    7     1      -0.4497263484E-03       4    7    1        -0.2347794340E-01      0.5750815203E-01
          0                22           2             4    7     1      -0.3806138482E-03       5    7    1        -0.1987062263E-01      0.4867197348E-01
          0                23           2             4    7     1      -0.3222170280E-03       4    7    1        -0.1682132780E-01      0.4120292031E-01
          0                24           2             4    7     1      -0.2728330191E-03       4    7    1        -0.1424323482E-01      0.3488817058E-01
          0                25           2             4    7     1      -0.2310605450E-03       4    7    1        -0.1206250501E-01      0.2954655520E-01
          0                26           2             4    7     1      -0.1957061786E-03       4    7    1        -0.1021683192E-01      0.2502566486E-01
          0                27           2             4    7     1      -0.1657749262E-03       4    7    1        -0.8654272264E-02      0.2119824598E-01
          0                28           2             4    7     1      -0.1404346254E-03       4    7    1        -0.7331383045E-02      0.1795788918E-01
          0                29           2             4    7     1      -0.1189829770E-03       4    7    1        -0.6211500742E-02      0.1521478844E-01
          0                30           1             4    7     1      -0.1008143008E-03       4    7    1        -0.5263005778E-02      0.1289149324E-01
          0                31           1             4    7     1      -0.8542285796E-04       4    7    1        -0.4459496302E-02      0.1092333344E-01

    ------------------------------------------------
       NWT REQUIRED           31 OUTER ITERATIONS 
       AND A TOTAL OF         60 INNER ITERATIONS.
    ------------------------------------------------

 NO OUTPUT CONTROL FOR STRESS PERIOD   20   TIME STEP   21
 
 SOLVING FOR HEAD 
                                                   Max.-Head-Change                         Max.-Flux-Residual
  Residual-Control   Outer-Iter.   Inner-Iter.     Column Row Layer    Maximum-Head-Change  Column Row Layer    Maximum-Flux-Residual          L2-NORM 
          0                 1           2             4    7     1      -0.1222439201E+00       4    7    1        -0.6438597880E+01      0.1370943185E+02
          0                 2           2             5    8     1      -0.8437252194E-02       5    8    1        -0.4639429393E+00      0.1126600376E+01
          0                 3           2             4    7     1      -0.1204222165E-01       4    7    1        -0.6292613056E+00      0.1499048499E+01
          0                 4           2             4    7     1      -0.8832152355E-02       5    8    1        -0.4639835272E+00      0.1133537097E+01
          0                 5           2             4    7     1      -0.7339100835E-02       4    7    1        -0.3831424785E+00      0.9380614843E+00
          0                 6           2             4    7     1      -0.6047689092E-02       5    6    1        -0.3157386106E+00      0.7733781645E+00
          0                 7           2             4    7     1      -0.5017475494E-02       4    7    1        -0.2619360548E+00      0.6415959191E+00
          0                 8           2             4    7     1      -0.4178164777E-02       4    7    1        -0.2181199744E+00      0.5342752329E+00
          0                 9           2             4    7     1      -0.3490185066E-02       4    7    1        -0.1822041758E+00      0.4463006890E+00
          0                10           2             4    7     1      -0.2922802817E-02       4    7    1        -0.1525841313E+00      0.3737478157E+00
                                                   Max.-Head-Change                         Max.-Flux-Residual
  Residual-Control   Outer-Iter.   Inner-Iter.     Column Row Layer    Maximum-Head-Change  Column Row Layer    Maximum-Flux-Residual          L2-NORM 
          0                11           2             4    7     1      -0.2452657733E-02       4    7    1        -0.1280403302E+00      0.3136289087E+00
          0                12           2             4    7     1      -0.2061553239E-02       4    7    1        -0.1076227967E+00      0.2636178836E+00
          0                13           2             4    7     1      -0.1735213421E-02       4    7    1        -0.9058634327E-01      0.2218870203E+00
          0                14           2             4    7     1      -0.1462188543E-02       4    7    1        -0.7633315002E-01      0.1869745653E+00
          0                15           2             4    7     1      -0.1233301692E-02       4    7    1        -0.6438417430E-01      0.1577060900E+00
          0                16           2             4    7     1      -0.1041049053E-02       4    7    1        -0.5434767762E-01      0.1331221529E+00
          0                17           2             4    7     1      -0.8793305390E-03       4    7    1        -0.4590520685E-01      0.1124427077E+00
          0                18           2             4    7     1      -0.7431479093E-03       4    7    1        -0.3879583008E-01      0.9502861493E-01
          0                19           2             4    7     1      -0.6283609357E-03       4    7    1        -0.3280340777E-01      0.8035045077E-01
          0                20           2             4    7     1      -0.5315108432E-03       4    7    1        -0.2774737548E-01      0.6796593084E-01
                                                   Max.-Head-Change                         Max.-Flux-Residual
  Residual-Control   Outer-Iter.   Inner-Iter.     Column Row Layer    Maximum-Head-Change  Column Row Layer    Maximum-Flux-Residual          L2-NORM 
          0                21           2             4    7     1      -0.4497283559E-03       4    7    1        -0.2347794338E-01      0.5750815198E-01
          0                22           2             4    7     1      -0.3806155472E-03       5    7    1        -0.1987062261E-01      0.4867197343E-01
          0                23           2             4    7     1      -0.3222184663E-03       4    7    1        -0.1682132778E-01      0.4120292028E-01
          0                24           2             4    7     1      -0.2728342371E-03       4    7    1        -0.1424323481E-01      0.3488817056E-01
          0                25           2             4    7     1      -0.2310615761E-03       4    7    1        -0.1206250500E-01      0.2954655518E-01
          0                26           2             4    7     1      -0.1957070526E-03       4    7    1        -0.1021683193E-01      0.2502566484E-01
          0                27           2             4    7     1      -0.1657756658E-03       4    7    1        -0.8654272249E-02      0.2119824594E-01
          0                28           2             4    7     1      -0.1404352530E-03       4    7    1        -0.7331383063E-02      0.1795788917E-01
          0                29           2             4    7     1      -0.1189835077E-03       4    7    1        -0.6211500714E-02      0.1521478842E-01
          0                30           1             4    7     1      -0.1008147507E-03       4    7    1        -0.5263005778E-02      0.1289149324E-01
          0                31           1             4    7     1      -0.8542323925E-04       4    7    1        -0.4459496312E-02      0.1092333345E-01

    ------------------------------------------------
       NWT REQUIRED           31 OUTER ITERATIONS 
       AND A TOTAL OF         60 INNER ITERATIONS.
    ------------------------------------------------

 NO OUTPUT CONTROL FOR STRESS PERIOD   20   TIME STEP   22
 
 SOLVING FOR HEAD 
                                                   Max.-Head-Change                         Max.-Flux-Residual
  Residual-Control   Outer-Iter.   Inner-Iter.     Column Row Layer    Maximum-Head-Change  Column Row Layer    Maximum-Flux-Residual          L2-NORM 
          0                 1           2             4    7     1      -0.1201604754E+00       4    7    1        -0.6329894634E+01      0.1354638435E+02
          0                 2           2             5    8     1      -0.8660577903E-02       5    8    1        -0.4760247851E+00      0.1156940655E+01
          0                 3           2             4    7     1      -0.1202143633E-01       4    7    1        -0.6281751258E+00      0.1496207739E+01
          0                 4           2             4    7     1      -0.8834275820E-02       5    8    1        -0.4641035498E+00      0.1133824106E+01
          0                 5           2             4    7     1      -0.7338925300E-02       4    7    1        -0.3831316322E+00      0.9380328243E+00
          0                 6           2             4    7     1      -0.6047737007E-02       5    6    1        -0.3157398220E+00      0.7733810286E+00
          0                 7           2             4    7     1      -0.5017495874E-02       4    7    1        -0.2619359463E+00      0.6415956322E+00
          0                 8           2             4    7     1      -0.4178183692E-02       4    7    1        -0.2181199852E+00      0.5342752612E+00
          0                 9           2             4    7     1      -0.3490200671E-02       4    7    1        -0.1822041747E+00      0.4463006858E+00
          0                10           2             4    7     1      -0.2922815904E-02       4    7    1        -0.1525841313E+00      0.3737478158E+00
                                                   Max.-Head-Change                         Max.-Flux-Residual
  Residual-Control   Outer-Iter.   Inner-Iter.     Column Row Layer    Maximum-Head-Change  Column Row Layer    Maximum-Flux-Residual          L2-NORM 
          0                11           2             4    7     1      -0.2452668714E-02       4    7    1        -0.1280403302E+00      0.3136289085E+00
          0                12           2             4    7     1      -0.2061562469E-02       4    7    1        -0.1076227967E+00      0.2636178834E+00
          0                13           2             4    7     1      -0.1735221190E-02       4    7    1        -0.9058634325E-01      0.2218870202E+00
          0                14           2             4    7     1      -0.1462195089E-02       4    7    1        -0.7633315000E-01      0.1869745652E+00
          0                15           2             4    7     1      -0.1233307214E-02       4    7    1        -0.6438417426E-01      0.1577060899E+00
          0                16           2             4    7     1      -0.1041053714E-02       4    7    1        -0.5434767758E-01      0.1331221528E+00
          0                17           2             4    7     1      -0.8793344760E-03       4    7    1        -0.4590520684E-01      0.1124427077E+00
          0                18           2             4    7     1      -0.7431512364E-03       4    7    1        -0.3879583006E-01      0.9502861488E-01
          0                19           2             4    7     1      -0.6283637487E-03       4    7    1        -0.3280340776E-01      0.8035045072E-01
          0                20           2             4    7     1      -0.5315132233E-03       4    7    1        -0.2774737548E-01      0.6796593084E-01
                                                   Max.-Head-Change                         Max.-Flux-Residual
  Residual-Control   Outer-Iter.   Inner-Iter.     Column Row Layer    Maximum-Head-Change  Column Row Layer    Maximum-Flux-Residual          L2-NORM 
          0                21           2             4    7     1      -0.4497303692E-03       4    7    1        -0.2347794335E-01      0.5750815193E-01
          0                22           2             4    7     1      -0.3806172511E-03       5    7    1        -0.1987062261E-01      0.4867197339E-01
          0                23           2             4    7     1      -0.3222199084E-03       4    7    1        -0.1682132777E-01      0.4120292025E-01
          0                24           2             4    7     1      -0.2728354590E-03       4    7    1        -0.1424323483E-01      0.3488817054E-01
          0                25           2             4    7     1      -0.2310626107E-03       4    7    1        -0.1206250499E-01      0.2954655516E-01
          0                26           2             4    7     1      -0.1957079285E-03       4    7    1        -0.1021683192E-01      0.2502566482E-01
          0                27           2             4    7     1      -0.1657764085E-03       4    7    1        -0.8654272259E-02      0.2119824596E-01
          0                28           2             4    7     1      -0.1404358812E-03       4    7    1        -0.7331383043E-02      0.1795788914E-01
          0                29           2             4    7     1      -0.1189840412E-03       4    7    1        -0.6211500732E-02      0.1521478843E-01
          0                30           1             4    7     1      -0.1008152014E-03       4    7    1        -0.5263005747E-02      0.1289149322E-01
          0                31           1             4    7     1      -0.8542362192E-04       4    7    1        -0.4459496314E-02      0.1092333343E-01

    ------------------------------------------------
       NWT REQUIRED           31 OUTER ITERATIONS 
       AND A TOTAL OF         60 INNER ITERATIONS.
    ------------------------------------------------

 NO OUTPUT CONTROL FOR STRESS PERIOD   20   TIME STEP   23
 
 SOLVING FOR HEAD 
                                                   Max.-Head-Change                         Max.-Flux-Residual
  Residual-Control   Outer-Iter.   Inner-Iter.     Column Row Layer    Maximum-Head-Change  Column Row Layer    Maximum-Flux-Residual          L2-NORM 
          0                 1           2             4    7     1      -0.1180876843E+00       4    7    1        -0.6221654084E+01      0.1339073226E+02
          0                 2           2             5    8     1      -0.8875242630E-02       5    8    1        -0.4876290531E+00      0.1186307927E+01
          0                 3           2             4    7     1      -0.1200075768E-01       4    7    1        -0.6270935523E+00      0.1493440688E+01
          0                 4           2             4    7     1      -0.8836388708E-02       5    8    1        -0.4642188490E+00      0.1134103634E+01
          0                 5           2             4    7     1      -0.7338750898E-02       4    7    1        -0.3831208316E+00      0.9380049096E+00
          0                 6           2             4    7     1      -0.6047784871E-02       5    6    1        -0.3157409876E+00      0.7733838184E+00
          0                 7           2             4    7     1      -0.5017516309E-02       4    7    1        -0.2619358382E+00      0.6415953529E+00
          0                 8           2             4    7     1      -0.4178202643E-02       4    7    1        -0.2181199959E+00      0.5342752889E+00
          0                 9           2             4    7     1      -0.3490216308E-02       4    7    1        -0.1822041735E+00      0.4463006828E+00
          0                10           2             4    7     1      -0.2922829018E-02       4    7    1        -0.1525841313E+00      0.3737478158E+00
                                                   Max.-Head-Change                         Max.-Flux-Residual
  Residual-Control   Outer-Iter.   Inner-Iter.     Column Row Layer    Maximum-Head-Change  Column Row Layer    Maximum-Flux-Residual          L2-NORM 
          0                11           2             4    7     1      -0.2452679717E-02       4    7    1        -0.1280403301E+00      0.3136289083E+00
          0                12           2             4    7     1      -0.2061571717E-02       4    7    1        -0.1076227966E+00      0.2636178833E+00
          0                13           2             4    7     1      -0.1735228974E-02       4    7    1        -0.9058634321E-01      0.2218870201E+00
          0                14           2             4    7     1      -0.1462201648E-02       4    7    1        -0.7633314996E-01      0.1869745651E+00
          0                15           2             4    7     1      -0.1233312747E-02       4    7    1        -0.6438417426E-01      0.1577060898E+00
          0                16           2             4    7     1      -0.1041058384E-02       4    7    1        -0.5434767757E-01      0.1331221527E+00
          0                17           2             4    7     1      -0.8793384211E-03       4    7    1        -0.4590520684E-01      0.1124427076E+00
          0                18           2             4    7     1      -0.7431545700E-03       4    7    1        -0.3879583004E-01      0.9502861482E-01
          0                19           2             4    7     1      -0.6283665680E-03       4    7    1        -0.3280340775E-01      0.8035045067E-01
          0                20           2             4    7     1      -0.5315156075E-03       4    7    1        -0.2774737545E-01      0.6796593077E-01
                                                   Max.-Head-Change                         Max.-Flux-Residual
  Residual-Control   Outer-Iter.   Inner-Iter.     Column Row Layer    Maximum-Head-Change  Column Row Layer    Maximum-Flux-Residual          L2-NORM 
          0                21           2             4    7     1      -0.4497323864E-03       4    7    1        -0.2347794335E-01      0.5750815191E-01
          0                22           2             4    7     1      -0.3806189586E-03       5    7    1        -0.1987062260E-01      0.4867197338E-01
          0                23           2             4    7     1      -0.3222213542E-03       4    7    1        -0.1682132777E-01      0.4120292023E-01
          0                24           2             4    7     1      -0.2728366827E-03       4    7    1        -0.1424323482E-01      0.3488817053E-01
          0                25           2             4    7     1      -0.2310636472E-03       4    7    1        -0.1206250500E-01      0.2954655514E-01
          0                26           2             4    7     1      -0.1957088068E-03       4    7    1        -0.1021683192E-01      0.2502566480E-01
          0                27           2             4    7     1      -0.1657771518E-03       4    7    1        -0.8654272244E-02      0.2119824593E-01
          0                28           2             4    7     1      -0.1404365113E-03       4    7    1        -0.7331383041E-02      0.1795788913E-01
          0                29           2             4    7     1      -0.1189845744E-03       4    7    1        -0.6211500720E-02      0.1521478841E-01
          0                30           1             4    7     1      -0.1008156544E-03       4    7    1        -0.5263005771E-02      0.1289149322E-01
          0                31           1             4    7     1      -0.8542400522E-04       4    7    1        -0.4459496301E-02      0.1092333342E-01

    ------------------------------------------------
       NWT REQUIRED           31 OUTER ITERATIONS 
       AND A TOTAL OF         60 INNER ITERATIONS.
    ------------------------------------------------

 NO OUTPUT CONTROL FOR STRESS PERIOD   20   TIME STEP   24
 
 SOLVING FOR HEAD 
                                                   Max.-Head-Change                         Max.-Flux-Residual
  Residual-Control   Outer-Iter.   Inner-Iter.     Column Row Layer    Maximum-Head-Change  Column Row Layer    Maximum-Flux-Residual          L2-NORM 
          0                 1           2             4    7     1      -0.1160271206E+00       4    7    1        -0.6113966235E+01      0.1324208174E+02
          0                 2           2             5    8     1      -0.9081715057E-02       5    8    1        -0.4987818585E+00      0.1214747942E+01
          0                 3           2             4    7     1      -0.1198020139E-01       4    7    1        -0.6260174849E+00      0.1490744530E+01
          0                 4           2             4    7     1      -0.8838489411E-02       5    8    1        -0.4643296830E+00      0.1134375964E+01
          0                 5           2             4    7     1      -0.7338577756E-02       4    7    1        -0.3831100857E+00      0.9379777123E+00
          0                 6           2             4    7     1      -0.6047832642E-02       5    6    1        -0.3157421100E+00      0.7733865367E+00
          0                 7           2             4    7     1      -0.5017536784E-02       4    7    1        -0.2619357307E+00      0.6415950809E+00
          0                 8           2             4    7     1      -0.4178221614E-02       4    7    1        -0.2181200065E+00      0.5342753158E+00
          0                 9           2             4    7     1      -0.3490231963E-02       4    7    1        -0.1822041724E+00      0.4463006799E+00
          0                10           2             4    7     1      -0.2922842147E-02       4    7    1        -0.1525841314E+00      0.3737478160E+00
                                                   Max.-Head-Change                         Max.-Flux-Residual
  Residual-Control   Outer-Iter.   Inner-Iter.     Column Row Layer    Maximum-Head-Change  Column Row Layer    Maximum-Flux-Residual          L2-NORM 
          0                11           2             4    7     1      -0.2452690732E-02       4    7    1        -0.1280403301E+00      0.3136289082E+00
          0                12           2             4    7     1      -0.2061580976E-02       4    7    1        -0.1076227966E+00      0.2636178832E+00
          0                13           2             4    7     1      -0.1735236768E-02       4    7    1        -0.9058634318E-01      0.2218870200E+00
          0                14           2             4    7     1      -0.1462208216E-02       4    7    1        -0.7633314993E-01      0.1869745650E+00
          0                15           2             4    7     1      -0.1233318286E-02       4    7    1        -0.6438417424E-01      0.1577060898E+00
          0                16           2             4    7     1      -0.1041063059E-02       4    7    1        -0.5434767755E-01      0.1331221527E+00
          0                17           2             4    7     1      -0.8793423701E-03       4    7    1        -0.4590520682E-01      0.1124427076E+00
          0                18           2             4    7     1      -0.7431579076E-03       4    7    1        -0.3879583004E-01      0.9502861478E-01
          0                19           2             4    7     1      -0.6283693902E-03       4    7    1        -0.3280340776E-01      0.8035045066E-01
          0                20           2             4    7     1      -0.5315179947E-03       4    7    1        -0.2774737546E-01      0.6796593075E-01
                                                   Max.-Head-Change                         Max.-Flux-Residual
  Residual-Control   Outer-Iter.   Inner-Iter.     Column Row Layer    Maximum-Head-Change  Column Row Layer    Maximum-Flux-Residual          L2-NORM 
          0                21           2             4    7     1      -0.4497344067E-03       4    7    1        -0.2347794335E-01      0.5750815190E-01
          0                22           2             4    7     1      -0.3806206677E-03       5    7    1        -0.1987062259E-01      0.4867197335E-01
          0                23           2             4    7     1      -0.3222228011E-03       4    7    1        -0.1682132775E-01      0.4120292022E-01
          0                24           2             4    7     1      -0.2728379085E-03       4    7    1        -0.1424323482E-01      0.3488817051E-01
          0                25           2             4    7     1      -0.2310646852E-03       4    7    1        -0.1206250498E-01      0.2954655512E-01
          0                26           2             4    7     1      -0.1957096854E-03       4    7    1        -0.1021683189E-01      0.2502566481E-01
          0                27           2             4    7     1      -0.1657778962E-03       4    7    1        -0.8654272232E-02      0.2119824594E-01
          0                28           2             4    7     1      -0.1404371421E-03       4    7    1        -0.7331383049E-02      0.1795788917E-01
          0                29           2             4    7     1      -0.1189851088E-03       4    7    1        -0.6211500720E-02      0.1521478842E-01
          0                30           1             4    7     1      -0.1008161073E-03       4    7    1        -0.5263005773E-02      0.1289149323E-01
          0                31           1             4    7     1      -0.8542438839E-04       4    7    1        -0.4459496296E-02      0.1092333343E-01

    ------------------------------------------------
       NWT REQUIRED           31 OUTER ITERATIONS 
       AND A TOTAL OF         60 INNER ITERATIONS.
    ------------------------------------------------

 NO OUTPUT CONTROL FOR STRESS PERIOD   20   TIME STEP   25
 
 SOLVING FOR HEAD 
                                                   Max.-Head-Change                         Max.-Flux-Residual
  Residual-Control   Outer-Iter.   Inner-Iter.     Column Row Layer    Maximum-Head-Change  Column Row Layer    Maximum-Flux-Residual          L2-NORM 
          0                 1           2             4    7     1      -0.1139802167E+00       4    7    1        -0.6006912681E+01      0.1310006295E+02
          0                 2           2             5    8     1      -0.9280486641E-02       5    8    1        -0.5095106222E+00      0.1242303177E+01
          0                 3           2             4    7     1      -0.1195978175E-01       4    7    1        -0.6249477397E+00      0.1488116616E+01
          0                 4           2             4    7     1      -0.8840576465E-02       5    8    1        -0.4644363226E+00      0.1134641362E+01
          0                 5           2             4    7     1      -0.7338405993E-02       4    7    1        -0.3830994025E+00      0.9379512057E+00
          0                 6           2             4    7     1      -0.6047880288E-02       5    6    1        -0.3157431914E+00      0.7733891861E+00
          0                 7           2             4    7     1      -0.5017557279E-02       4    7    1        -0.2619356238E+00      0.6415948158E+00
          0                 8           2             4    7     1      -0.4178240591E-02       4    7    1        -0.2181200172E+00      0.5342753422E+00
          0                 9           2             4    7     1      -0.3490247623E-02       4    7    1        -0.1822041713E+00      0.4463006772E+00
          0                10           2             4    7     1      -0.2922855281E-02       4    7    1        -0.1525841314E+00      0.3737478162E+00
                                                   Max.-Head-Change                         Max.-Flux-Residual
  Residual-Control   Outer-Iter.   Inner-Iter.     Column Row Layer    Maximum-Head-Change  Column Row Layer    Maximum-Flux-Residual          L2-NORM 
          0                11           2             4    7     1      -0.2452701751E-02       4    7    1        -0.1280403300E+00      0.3136289081E+00
          0                12           2             4    7     1      -0.2061590238E-02       4    7    1        -0.1076227966E+00      0.2636178831E+00
          0                13           2             4    7     1      -0.1735244563E-02       4    7    1        -0.9058634314E-01      0.2218870199E+00
          0                14           2             4    7     1      -0.1462214785E-02       4    7    1        -0.7633314992E-01      0.1869745650E+00
          0                15           2             4    7     1      -0.1233323826E-02       4    7    1        -0.6438417420E-01      0.1577060897E+00
          0                16           2             4    7     1      -0.1041067737E-02       4    7    1        -0.5434767754E-01      0.1331221527E+00
          0                17           2             4    7     1      -0.8793463209E-03       4    7    1        -0.4590520679E-01      0.1124427075E+00
          0                18           2             4    7     1      -0.7431612467E-03       4    7    1        -0.3879583002E-01      0.9502861478E-01
          0                19           2             4    7     1      -0.6283722130E-03       4    7    1        -0.3280340772E-01      0.8035045064E-01
          0                20           2             4    7     1      -0.5315203827E-03       4    7    1        -0.2774737545E-01      0.6796593074E-01
                                                   Max.-Head-Change                         Max.-Flux-Residual
  Residual-Control   Outer-Iter.   Inner-Iter.     Column Row Layer    Maximum-Head-Change  Column Row Layer    Maximum-Flux-Residual          L2-NORM 
          0                21           2             4    7     1      -0.4497364271E-03       4    7    1        -0.2347794333E-01      0.5750815187E-01
          0                22           2             4    7     1      -0.3806223776E-03       5    7    1        -0.1987062261E-01      0.4867197336E-01
          0                23           2             4    7     1      -0.3222242495E-03       4    7    1        -0.1682132776E-01      0.4120292022E-01
          0                24           2             4    7     1      -0.2728391336E-03       4    7    1        -0.1424323478E-01      0.3488817048E-01
          0                25           2             4    7     1      -0.2310657233E-03       4    7    1        -0.1206250498E-01      0.2954655513E-01
          0                26           2             4    7     1      -0.1957105646E-03       4    7    1        -0.1021683190E-01      0.2502566481E-01
          0                27           2             4    7     1      -0.1657786415E-03       4    7    1        -0.8654272251E-02      0.2119824593E-01
          0                28           2             4    7     1      -0.1404377729E-03       4    7    1        -0.7331383037E-02      0.1795788914E-01
          0                29           2             4    7     1      -0.1189856437E-03       4    7    1        -0.6211500722E-02      0.1521478842E-01
          0                30           1             4    7     1      -0.1008165600E-03       4    7    1        -0.5263005757E-02      0.1289149324E-01
          0                31           1             4    7     1      -0.8542477256E-04       4    7    1        -0.4459496293E-02      0.1092333346E-01

    ------------------------------------------------
       NWT REQUIRED           31 OUTER ITERATIONS 
       AND A TOTAL OF         60 INNER ITERATIONS.
    ------------------------------------------------

 NO OUTPUT CONTROL FOR STRESS PERIOD   20   TIME STEP   26
 
 SOLVING FOR HEAD 
                                                   Max.-Head-Change                         Max.-Flux-Residual
  Residual-Control   Outer-Iter.   Inner-Iter.     Column Row Layer    Maximum-Head-Change  Column Row Layer    Maximum-Flux-Residual          L2-NORM 
          0                 1           2             4    7     1      -0.1119483933E+00       4    7    1        -0.5900574917E+01      0.1296434233E+02
          0                 2           2             5    8     1      -0.9471828411E-02       5    8    1        -0.5198377094E+00      0.1269108530E+01
          0                 3           2             4    7     1      -0.1193951292E-01       4    7    1        -0.6238851316E+00      0.1485554902E+01
          0                 4           2             4    7     1      -0.8842648418E-02       5    8    1        -0.4645389454E+00      0.1134900067E+01
          0                 5           2             4    7     1      -0.7338235723E-02       4    7    1        -0.3830887903E+00      0.9379253694E+00
          0                 6           2             4    7     1      -0.6047927770E-02       5    6    1        -0.3157442340E+00      0.7733917708E+00
          0                 7           2             4    7     1      -0.5017577780E-02       4    7    1        -0.2619355176E+00      0.6415945591E+00
          0                 8           2             4    7     1      -0.4178259557E-02       4    7    1        -0.2181200277E+00      0.5342753693E+00
          0                 9           2             4    7     1      -0.3490263277E-02       4    7    1        -0.1822041701E+00      0.4463006756E+00
          0                10           2             4    7     1      -0.2922868409E-02       4    7    1        -0.1525841315E+00      0.3737478173E+00
                                                   Max.-Head-Change                         Max.-Flux-Residual
  Residual-Control   Outer-Iter.   Inner-Iter.     Column Row Layer    Maximum-Head-Change  Column Row Layer    Maximum-Flux-Residual          L2-NORM 
          0                11           2             4    7     1      -0.2452712765E-02       4    7    1        -0.1280403300E+00      0.3136289088E+00
          0                12           2             4    7     1      -0.2061599496E-02       4    7    1        -0.1076227965E+00      0.2636178838E+00
          0                13           2             4    7     1      -0.1735252357E-02       4    7    1        -0.9058634314E-01      0.2218870205E+00
          0                14           2             4    7     1      -0.1462221352E-02       4    7    1        -0.7633314989E-01      0.1869745654E+00
          0                15           2             4    7     1      -0.1233329365E-02       4    7    1        -0.6438417420E-01      0.1577060901E+00
          0                16           2             4    7     1      -0.1041072412E-02       4    7    1        -0.5434767752E-01      0.1331221530E+00
          0                17           2             4    7     1      -0.8793502700E-03       4    7    1        -0.4590520679E-01      0.1124427078E+00
          0                18           2             4    7     1      -0.7431645839E-03       4    7    1        -0.3879583000E-01      0.9502861500E-01
          0                19           2             4    7     1      -0.6283750352E-03       4    7    1        -0.3280340773E-01      0.8035045083E-01
          0                20           2             4    7     1      -0.5315227692E-03       4    7    1        -0.2774737543E-01      0.6796593088E-01
                                                   Max.-Head-Change                         Max.-Flux-Residual
  Residual-Control   Outer-Iter.   Inner-Iter.     Column Row Layer    Maximum-Head-Change  Column Row Layer    Maximum-Flux-Residual          L2-NORM 
          0                21           2             4    7     1      -0.4497384471E-03       4    7    1        -0.2347794335E-01      0.5750815201E-01
          0                22           2             4    7     1      -0.3806240869E-03       5    7    1        -0.1987062262E-01      0.4867197347E-01
          0                23           2             4    7     1      -0.3222256963E-03       4    7    1        -0.1682132775E-01      0.4120292030E-01
          0                24           2             4    7     1      -0.2728403590E-03       4    7    1        -0.1424323479E-01      0.3488817058E-01
          0                25           2             4    7     1      -0.2310667607E-03       4    7    1        -0.1206250499E-01      0.2954655519E-01
          0                26           2             4    7     1      -0.1957114441E-03       4    7    1        -0.1021683191E-01      0.2502566486E-01
          0                27           2             4    7     1      -0.1657793856E-03       4    7    1        -0.8654272225E-02      0.2119824597E-01
          0                28           2             4    7     1      -0.1404384037E-03       4    7    1        -0.7331383036E-02      0.1795788917E-01
          0                29           2             4    7     1      -0.1189861780E-03       4    7    1        -0.6211500713E-02      0.1521478843E-01
          0                30           1             4    7     1      -0.1008170126E-03       4    7    1        -0.5263005748E-02      0.1289149321E-01
          0                31           1             4    7     1      -0.8542515598E-04       4    7    1        -0.4459496293E-02      0.1092333344E-01

    ------------------------------------------------
       NWT REQUIRED           31 OUTER ITERATIONS 
       AND A TOTAL OF         60 INNER ITERATIONS.
    ------------------------------------------------

 NO OUTPUT CONTROL FOR STRESS PERIOD   20   TIME STEP   27
 
 SOLVING FOR HEAD 
                                                   Max.-Head-Change                         Max.-Flux-Residual
  Residual-Control   Outer-Iter.   Inner-Iter.     Column Row Layer    Maximum-Head-Change  Column Row Layer    Maximum-Flux-Residual          L2-NORM 
          0                 1           2             4    7     1      -0.1099326708E+00       4    7    1        -0.5795012084E+01      0.1283452852E+02
          0                 2           2             5    8     1      -0.9639714120E-02       5    8    1        -0.5287469738E+00      0.1294794009E+01
          0                 3           2             4    7     1      -0.1191938087E-01       4    7    1        -0.6228302519E+00      0.1483054356E+01
          0                 4           2             4    7     1      -0.8844708157E-02       5    8    1        -0.4646275440E+00      0.1135152377E+01
          0                 5           2             4    7     1      -0.7338067874E-02       4    7    1        -0.3830782549E+00      0.9379001649E+00
          0                 6           2             4    7     1      -0.6047976000E-02       5    6    1        -0.3157452397E+00      0.7733942904E+00
          0                 7           2             4    7     1      -0.5017599025E-02       4    7    1        -0.2619354122E+00      0.6415943073E+00
          0                 8           2             4    7     1      -0.4178279133E-02       4    7    1        -0.2181200382E+00      0.5342753946E+00
          0                 9           2             4    7     1      -0.3490279440E-02       4    7    1        -0.1822041690E+00      0.4463006732E+00
          0                10           2             4    7     1      -0.2922881963E-02       4    7    1        -0.1525841316E+00      0.3737478176E+00
                                                   Max.-Head-Change                         Max.-Flux-Residual
  Residual-Control   Outer-Iter.   Inner-Iter.     Column Row Layer    Maximum-Head-Change  Column Row Layer    Maximum-Flux-Residual          L2-NORM 
          0                11           2             4    7     1      -0.2452724138E-02       4    7    1        -0.1280403299E+00      0.3136289088E+00
          0                12           2             4    7     1      -0.2061609055E-02       4    7    1        -0.1076227965E+00      0.2636178838E+00
          0                13           2             4    7     1      -0.1735260402E-02       4    7    1        -0.9058634311E-01      0.2218870205E+00
          0                14           2             4    7     1      -0.1462228131E-02       4    7    1        -0.7633314987E-01      0.1869745655E+00
          0                15           2             4    7     1      -0.1233335084E-02       4    7    1        -0.6438417417E-01      0.1577060901E+00
          0                16           2             4    7     1      -0.1041077239E-02       4    7    1        -0.5434767751E-01      0.1331221530E+00
          0                17           2             4    7     1      -0.8793543472E-03       4    7    1        -0.4590520678E-01      0.1124427078E+00
          0                18           2             4    7     1      -0.7431680296E-03       4    7    1        -0.3879583000E-01      0.9502861502E-01
          0                19           2             4    7     1      -0.6283779489E-03       4    7    1        -0.3280340773E-01      0.8035045085E-01
          0                20           2             4    7     1      -0.5315252340E-03       4    7    1        -0.2774737543E-01      0.6796593089E-01
                                                   Max.-Head-Change                         Max.-Flux-Residual
  Residual-Control   Outer-Iter.   Inner-Iter.     Column Row Layer    Maximum-Head-Change  Column Row Layer    Maximum-Flux-Residual          L2-NORM 
          0                21           2             4    7     1      -0.4497405320E-03       4    7    1        -0.2347794333E-01      0.5750815202E-01
          0                22           2             4    7     1      -0.3806258515E-03       5    7    1        -0.1987062263E-01      0.4867197348E-01
          0                23           2             4    7     1      -0.3222271904E-03       4    7    1        -0.1682132775E-01      0.4120292032E-01
          0                24           2             4    7     1      -0.2728416243E-03       4    7    1        -0.1424323479E-01      0.3488817057E-01
          0                25           2             4    7     1      -0.2310678318E-03       4    7    1        -0.1206250497E-01      0.2954655520E-01
          0                26           2             4    7     1      -0.1957123514E-03       4    7    1        -0.1021683191E-01      0.2502566485E-01
          0                27           2             4    7     1      -0.1657801543E-03       4    7    1        -0.8654272241E-02      0.2119824597E-01
          0                28           2             4    7     1      -0.1404390553E-03       4    7    1        -0.7331383049E-02      0.1795788918E-01
          0                29           2             4    7     1      -0.1189867293E-03       4    7    1        -0.6211500696E-02      0.1521478842E-01
          0                30           1             4    7     1      -0.1008174804E-03       4    7    1        -0.5263005757E-02      0.1289149324E-01
          0                31           1             4    7     1      -0.8542555178E-04       4    7    1        -0.4459496284E-02      0.1092333343E-01

    ------------------------------------------------
       NWT REQUIRED           31 OUTER ITERATIONS 
       AND A TOTAL OF         60 INNER ITERATIONS.
    ------------------------------------------------

 NO OUTPUT CONTROL FOR STRESS PERIOD   20   TIME STEP   28
 
 SOLVING FOR HEAD 
                                                   Max.-Head-Change                         Max.-Flux-Residual
  Residual-Control   Outer-Iter.   Inner-Iter.     Column Row Layer    Maximum-Head-Change  Column Row Layer    Maximum-Flux-Residual          L2-NORM 
          0                 1           2             4    7     1      -0.1079351404E+00       4    7    1        -0.5690312888E+01      0.1271034291E+02
          0                 2           2             5    8     1      -0.9838077085E-02       5    8    1        -0.5394723689E+00      0.1320044793E+01
          0                 3           2             4    7     1      -0.1189948069E-01       4    7    1        -0.6217839892E+00      0.1480617401E+01
          0                 4           2             4    7     1      -0.8846743107E-02       5    8    1        -0.4647342930E+00      0.1135398502E+01
          0                 5           2             4    7     1      -0.7337901193E-02       4    7    1        -0.3830678054E+00      0.9378755808E+00
          0                 6           2             4    7     1      -0.6048023031E-02       5    6    1        -0.3157462105E+00      0.7733967481E+00
          0                 7           2             4    7     1      -0.5017619495E-02       4    7    1        -0.2619353077E+00      0.6415940617E+00
          0                 8           2             4    7     1      -0.4178298039E-02       4    7    1        -0.2181200486E+00      0.5342754193E+00
          0                 9           2             4    7     1      -0.3490295047E-02       4    7    1        -0.1822041680E+00      0.4463006708E+00
          0                10           2             4    7     1      -0.2922895052E-02       4    7    1        -0.1525841316E+00      0.3737478179E+00
                                                   Max.-Head-Change                         Max.-Flux-Residual
  Residual-Control   Outer-Iter.   Inner-Iter.     Column Row Layer    Maximum-Head-Change  Column Row Layer    Maximum-Flux-Residual          L2-NORM 
          0                11           2             4    7     1      -0.2452735118E-02       4    7    1        -0.1280403299E+00      0.3136289089E+00
          0                12           2             4    7     1      -0.2061618286E-02       4    7    1        -0.1076227965E+00      0.2636178839E+00
          0                13           2             4    7     1      -0.1735268171E-02       4    7    1        -0.9058634308E-01      0.2218870205E+00
          0                14           2             4    7     1      -0.1462234678E-02       4    7    1        -0.7633314987E-01      0.1869745655E+00
          0                15           2             4    7     1      -0.1233340606E-02       4    7    1        -0.6438417417E-01      0.1577060901E+00
          0                16           2             4    7     1      -0.1041081900E-02       4    7    1        -0.5434767749E-01      0.1331221530E+00
          0                17           2             4    7     1      -0.8793582838E-03       4    7    1        -0.4590520676E-01      0.1124427078E+00
          0                18           2             4    7     1      -0.7431713574E-03       4    7    1        -0.3879583001E-01      0.9502861504E-01
          0                19           2             4    7     1      -0.6283807618E-03       4    7    1        -0.3280340770E-01      0.8035045085E-01
          0                20           2             4    7     1      -0.5315276139E-03       4    7    1        -0.2774737543E-01      0.6796593093E-01
                                                   Max.-Head-Change                         Max.-Flux-Residual
  Residual-Control   Outer-Iter.   Inner-Iter.     Column Row Layer    Maximum-Head-Change  Column Row Layer    Maximum-Flux-Residual          L2-NORM 
          0                21           2             4    7     1      -0.4497425456E-03       4    7    1        -0.2347794332E-01      0.5750815203E-01
          0                22           2             4    7     1      -0.3806275557E-03       5    7    1        -0.1987062263E-01      0.4867197348E-01
          0                23           2             4    7     1      -0.3222286329E-03       4    7    1        -0.1682132774E-01      0.4120292034E-01
          0                24           2             4    7     1      -0.2728428460E-03       4    7    1        -0.1424323479E-01      0.3488817057E-01
          0                25           2             4    7     1      -0.2310688667E-03       4    7    1        -0.1206250496E-01      0.2954655520E-01
          0                26           2             4    7     1      -0.1957132274E-03       4    7    1        -0.1021683189E-01      0.2502566486E-01
          0                27           2             4    7     1      -0.1657808964E-03       4    7    1        -0.8654272229E-02      0.2119824598E-01
          0                28           2             4    7     1      -0.1404396839E-03       4    7    1        -0.7331383043E-02      0.1795788918E-01
          0                29           2             4    7     1      -0.1189872621E-03       4    7    1        -0.6211500709E-02      0.1521478844E-01
          0                30           1             4    7     1      -0.1008179319E-03       4    7    1        -0.5263005764E-02      0.1289149324E-01
          0                31           1             4    7     1      -0.8542593457E-04       4    7    1        -0.4459496287E-02      0.1092333344E-01

    ------------------------------------------------
       NWT REQUIRED           31 OUTER ITERATIONS 
       AND A TOTAL OF         60 INNER ITERATIONS.
    ------------------------------------------------

 NO OUTPUT CONTROL FOR STRESS PERIOD   20   TIME STEP   29
 
 SOLVING FOR HEAD 
                                                   Max.-Head-Change                         Max.-Flux-Residual
  Residual-Control   Outer-Iter.   Inner-Iter.     Column Row Layer    Maximum-Head-Change  Column Row Layer    Maximum-Flux-Residual          L2-NORM 
          0                 1           2             4    7     1      -0.1059556885E+00       4    7    1        -0.5586515224E+01      0.1261289105E+02
          0                 2           2             5    8     1      -0.1001132151E-01       5    8    1        -0.5488204579E+00      0.1346407945E+01
          0                 3           2             4    7     1      -0.1187973535E-01       4    7    1        -0.6207467208E+00      0.1478247521E+01
          0                 4           2             4    7     1      -0.8848762471E-02       5    8    1        -0.4648271426E+00      0.1135638465E+01
          0                 5           2             4    7     1      -0.7337735987E-02       4    7    1        -0.3830574453E+00      0.9378516155E+00
          0                 6           2             4    7     1      -0.6048069846E-02       5    6    1        -0.3157471459E+00      0.7733991440E+00
          0                 7           2             4    7     1      -0.5017639929E-02       4    7    1        -0.2619352040E+00      0.6415938226E+00
          0                 8           2             4    7     1      -0.4178316902E-02       4    7    1        -0.2181200589E+00      0.5342754434E+00
          0                 9           2             4    7     1      -0.3490310618E-02       4    7    1        -0.1822041669E+00      0.4463006686E+00
          0                10           2             4    7     1      -0.2922908110E-02       4    7    1        -0.1525841317E+00      0.3737478186E+00
                                                   Max.-Head-Change                         Max.-Flux-Residual
  Residual-Control   Outer-Iter.   Inner-Iter.     Column Row Layer    Maximum-Head-Change  Column Row Layer    Maximum-Flux-Residual          L2-NORM 
          0                11           2             4    7     1      -0.2452746075E-02       4    7    1        -0.1280403299E+00      0.3136289092E+00
          0                12           2             4    7     1      -0.2061627495E-02       4    7    1        -0.1076227965E+00      0.2636178840E+00
          0                13           2             4    7     1      -0.1735275923E-02       4    7    1        -0.9058634307E-01      0.2218870206E+00
          0                14           2             4    7     1      -0.1462241210E-02       4    7    1        -0.7633314985E-01      0.1869745661E+00
          0                15           2             4    7     1      -0.1233346115E-02       4    7    1        -0.6438417415E-01      0.1577060906E+00
          0                16           2             4    7     1      -0.1041086551E-02       4    7    1        -0.5434767749E-01      0.1331221531E+00
          0                17           2             4    7     1      -0.8793622122E-03       4    7    1        -0.4590520676E-01      0.1124427079E+00
          0                18           2             4    7     1      -0.7431746768E-03       4    7    1        -0.3879582999E-01      0.9502861601E-01
          0                19           2             4    7     1      -0.6283835689E-03       4    7    1        -0.3280340771E-01      0.8035045167E-01
          0                20           2             4    7     1      -0.5315299885E-03       4    7    1        -0.2774737543E-01      0.6796593099E-01
                                                   Max.-Head-Change                         Max.-Flux-Residual
  Residual-Control   Outer-Iter.   Inner-Iter.     Column Row Layer    Maximum-Head-Change  Column Row Layer    Maximum-Flux-Residual          L2-NORM 
          0                21           2             4    7     1      -0.4497445545E-03       4    7    1        -0.2347794331E-01      0.5750815206E-01
          0                22           2             4    7     1      -0.3806292558E-03       5    7    1        -0.1987062264E-01      0.4867197351E-01
          0                23           2             4    7     1      -0.3222300722E-03       4    7    1        -0.1682132774E-01      0.4120292034E-01
          0                24           2             4    7     1      -0.2728440647E-03       4    7    1        -0.1424323479E-01      0.3488817323E-01
          0                25           2             4    7     1      -0.2310698990E-03       4    7    1        -0.1206250497E-01      0.2954655705E-01
          0                26           2             4    7     1      -0.1957141014E-03       4    7    1        -0.1021683189E-01      0.2502566502E-01
          0                27           2             4    7     1      -0.1657816375E-03       4    7    1        -0.8654272241E-02      0.2119824601E-01
          0                28           2             4    7     1      -0.1404403109E-03       4    7    1        -0.7331383027E-02      0.1795788918E-01
          0                29           2             4    7     1      -0.1189877939E-03       4    7    1        -0.6211500708E-02      0.1521479443E-01
          0                30           1             4    7     1      -0.1008183818E-03       4    7    1        -0.5263005751E-02      0.1289149707E-01
          0                31           1             4    7     1      -0.8542631649E-04       4    7    1        -0.4459496295E-02      0.1092333382E-01

    ------------------------------------------------
       NWT REQUIRED           31 OUTER ITERATIONS 
       AND A TOTAL OF         60 INNER ITERATIONS.
    ------------------------------------------------

 NO OUTPUT CONTROL FOR STRESS PERIOD   20   TIME STEP   30



 STREAM LISTING     PERIOD     20   STEP       30

 LAYER ROW COL. STREAM  RCH.  FLOW INTO     FLOW TO   FLOW OUT OF   OVRLND.     DIRECT     STREAM       STREAM     STREAM     STREAM   STREAMBED  STREAMBED
                SEG.NO.  NO.  STRM. RCH.    AQUIFER    STRM. RCH.    RUNOFF     PRECIP       ET          HEAD       DEPTH      WIDTH   CONDCTNC.   GRADIENT

   1    1    1     1     1    4.3035E+01  3.1412E-01   4.2721E+01  0.000E+00  0.000E+00  0.000E+00  1.09440E+03  1.353E+00  1.604E+01  7.216E-02  1.451E+00
   1    2    2     1     2    4.2721E+01  4.8658E-01   4.2235E+01  0.000E+00  0.000E+00  0.000E+00  1.08941E+03  1.350E+00  1.598E+01  1.118E-01  1.450E+00
   1    3    3     1     3    4.2235E+01  4.1507E-01   4.1819E+01  0.000E+00  0.000E+00  0.000E+00  1.08377E+03  1.347E+00  1.591E+01  9.548E-02  1.449E+00
   1    3    4     1     4    4.1819E+01  3.8230E-01   4.1437E+01  0.000E+00  0.000E+00  0.000E+00  1.07875E+03  1.344E+00  1.586E+01  8.800E-02  1.448E+00
   1    4    5     2     1    3.9437E+01  3.5748E-01   3.9080E+01  0.000E+00  0.000E+00  0.000E+00  1.07352E+03  1.583E+00  1.200E+01  7.800E-02  1.528E+00
   1    5    6     2     2    3.9080E+01  2.7453E-01   3.8805E+01  0.000E+00  0.000E+00  0.000E+00  1.06808E+03  1.575E+00  1.200E+01  6.000E-02  1.525E+00
   1    6    6     2     3    3.8805E+01  2.7413E-01   3.8531E+01  0.000E+00  0.000E+00  0.000E+00  1.06336E+03  1.569E+00  1.200E+01  6.000E-02  1.523E+00
   1    7    6     2     4    3.8531E+01  2.7372E-01   3.8257E+01  0.000E+00  0.000E+00  0.000E+00  1.05864E+03  1.562E+00  1.200E+01  6.000E-02  1.521E+00
   1    8    6     2     5    3.8257E+01  2.7332E-01   3.7984E+01  0.000E+00  0.000E+00  0.000E+00  1.05391E+03  1.555E+00  1.200E+01  6.000E-02  1.518E+00
   1    3    5     3     1    2.0000E+00  2.8252E-01   1.7175E+00  0.000E+00  0.000E+00  0.000E+00  1.07555E+03  1.909E+00  9.636E+00  7.227E-02  1.955E+00
   1    3    6     3     2    1.7175E+00  2.4905E-01   1.4684E+00  0.000E+00  0.000E+00  0.000E+00  1.07264E+03  1.727E+00  8.909E+00  6.682E-02  1.864E+00
   1    3    7     3     3    1.4684E+00  1.9718E-01   1.2712E+00  0.000E+00  0.000E+00  0.000E+00  1.06987E+03  1.555E+00  8.218E+00  5.547E-02  1.777E+00
   1    4    8     3     4    1.2712E+00  2.2567E-01   1.0456E+00  0.000E+00  0.000E+00  0.000E+00  1.06682E+03  1.364E+00  7.455E+00  6.709E-02  1.682E+00
   1    5    8     3     5    1.0456E+00  1.5790E-01   8.8768E-01  0.000E+00  0.000E+00  0.000E+00  1.06362E+03  1.164E+00  6.655E+00  4.991E-02  1.582E+00
   1    6    8     3     6    8.8768E-01  5.5980E-02   8.3170E-01  0.000E+00  0.000E+00  0.000E+00  1.06158E+03  1.036E+00  6.145E+00  1.844E-02  1.518E+00
   1    5   10     4     1    1.0000E+01  9.0919E-02   9.9091E+00  0.000E+00  0.000E+00  0.000E+00  1.07836E+03  6.368E-01  1.000E+01  2.500E-02  1.212E+00
   1    5    9     4     2    9.9091E+00  1.8158E-01   9.7275E+00  0.000E+00  0.000E+00  0.000E+00  1.07154E+03  6.315E-01  1.000E+01  5.000E-02  1.211E+00
   1    6    8     4     3    9.7275E+00  1.2689E-01   9.6006E+00  0.000E+00  0.000E+00  0.000E+00  1.06381E+03  6.256E-01  1.000E+01  3.500E-02  1.209E+00
   1    6    8     5     1    1.0432E+01  2.2686E-01   1.0205E+01  0.000E+00  0.000E+00  0.000E+00  1.05868E+03  6.790E-01  1.542E+01  6.166E-02  1.226E+00
   1    7    7     5     2    1.0205E+01  2.7894E-01   9.9265E+00  0.000E+00  0.000E+00  0.000E+00  1.05417E+03  6.732E-01  1.519E+01  7.594E-02  1.224E+00
   1    8    7     5     3    9.9265E+00  1.9221E-01   9.7343E+00  0.000E+00  0.000E+00  0.000E+00  1.04992E+03  6.676E-01  1.497E+01  5.241E-02  1.223E+00
   1    8    6     5     4    9.7343E+00  1.3577E-01   9.5985E+00  0.000E+00  0.000E+00  0.000E+00  1.04691E+03  6.637E-01  1.482E+01  3.706E-02  1.221E+00
   1    9    6     6     1    4.7583E+01  2.8760E-01   4.7295E+01  0.000E+00  0.000E+00  0.000E+00  1.04452E+03  1.793E+00  1.200E+01  6.000E-02  1.598E+00
   1   10    7     6     2    4.7295E+01  2.8721E-01   4.7008E+01  0.000E+00  0.000E+00  0.000E+00  1.03997E+03  1.787E+00  1.200E+01  6.000E-02  1.596E+00
   1   11    7     6     3    4.7008E+01  2.8681E-01   4.6721E+01  0.000E+00  0.000E+00  0.000E+00  1.03542E+03  1.780E+00  1.200E+01  6.000E-02  1.593E+00
   1   12    7     6     4    4.6721E+01  2.8642E-01   4.6434E+01  0.000E+00  0.000E+00  0.000E+00  1.03086E+03  1.774E+00  1.200E+01  6.000E-02  1.591E+00
   1   13    7     6     5    4.6434E+01  1.4341E-02   4.6420E+01  0.000E+00  0.000E+00  0.000E+00  1.02768E+03  1.770E+00  1.200E+01  2.400E-02  1.992E-01
   1   14    9     7     1    1.5000E+02  1.3328E+00   1.4867E+02  0.000E+00  0.000E+00  0.000E+00  1.03987E+03  2.288E+00  5.529E+01  5.593E-01  7.943E-01
   1   13    8     7     2    1.4867E+02  1.8309E+00   1.4684E+02  0.000E+00  0.000E+00  0.000E+00  1.03478E+03  2.279E+00  5.526E+01  6.148E-01  9.927E-01
   1   13    7     7     3    1.4684E+02  1.4565E+00   1.4538E+02  0.000E+00  0.000E+00  0.000E+00  1.02969E+03  2.271E+00  5.522E+01  5.585E-01  8.694E-01
   1   13    6     8     1    1.9180E+02  9.8988E-01   1.9081E+02  0.000E+00  0.000E+00  0.000E+00  1.02496E+03  3.086E+00  4.474E+01  4.560E-01  7.237E-01
   1   13    5     8     2    1.9081E+02  2.0987E-01   1.9060E+02  0.000E+00  0.000E+00  0.000E+00  1.01871E+03  3.082E+00  4.469E+01  4.554E-01  1.536E-01
   1   13    4     8     3    1.9060E+02 -2.4479E+00   1.9305E+02  0.000E+00  0.000E+00  0.000E+00  1.01246E+03  3.089E+00  4.479E+01  4.564E+00 -1.788E-01
   1   13    3     8     4    1.9305E+02 -3.5772E+00   1.9663E+02  0.000E+00  0.000E+00  0.000E+00  1.00623E+03  3.107E+00  4.505E+01  4.591E+00 -2.597E-01
   1   13    2     8     5    1.9663E+02 -2.7400E+00   1.9937E+02  0.000E+00  0.000E+00  0.000E+00  1.00000E+03  3.126E+00  4.533E+01  4.619E+00 -1.977E-01
   1   13    1     8     6    1.9937E+02 -2.1018E+00   2.0147E+02  0.000E+00  0.000E+00  0.000E+00  9.95015E+02  3.140E+00  4.553E+01  2.784E+00 -2.517E-01





UNSATURATED ZONE PACKAGE VOLUMETRIC BUDGET FOR  TIME STEP    30 STRESS PERIOD   20
  ------------------------------------------------------------------------------



     CUMULATIVE VOLUMES      L**3       RATES FOR THIS TIME STEP      L**3/T
     ------------------                 ------------------------

           IN:                                      IN:
           ---                                      ---
        INFILTRATION =  1004828026.2703          INFILTRATION =          91.4654

          OUT:                                     OUT:
          ----                                     ----
              UZF ET =   806744519.1031                UZF ET =          64.0822
        UZF RECHARGE =    73804203.4082          UZF RECHARGE =       0.0000E+00

            IN - OUT =   124279303.7589              IN - OUT =          27.3832

          STORAGE:                                 STORAGE:
          --------                                 --------
      STORAGE CHANGE =   124280807.8364        STORAGE CHANGE =          27.3832

 PERCENT DISCREPANCY IS DIFFERENCE BETWEEN IN-OUT MINUS CHANGE IN STORAGE
 DIVIDED BY THE AVERAGE OF IN AND OUT TIMES 100

 PERCENT DISCREPANCY =          -0.00     PERCENT DISCREPANCY =           0.00






1
  VOLUMETRIC BUDGET FOR AGRICULTURAL FIELDS AT TIME STEP   30, STRESS PERIOD  20
  ------------------------------------------------------------------------------

     CUMULATIVE VOLUMES      L**3       RATES FOR THIS TIME STEP      L**3/T
     ------------------                 ------------------------

           IN:                                      IN:
           ---                                      ---
               AG WELLS  =   784511488.0000                 AG WELLS  =          87.0579
      DIVERSION SEGMENTS =           0.0000        DIVERSION SEGMENTS =           0.0000
           GW IRRIGATION =           0.0000             GW IRRIGATION =           0.0000
           SW IRRIGATION =           0.0000             SW IRRIGATION =           0.0000
        SYSTEM LOSSES GW =           0.0000          SYSTEM LOSSES GW =           0.0000
        SYSTEM LOSSES SW =           0.0000          SYSTEM LOSSES SW =           0.0000

                TOTAL IN =   784511488.0000                  TOTAL IN =          87.0579

          OUT:                                     OUT:
          ----                                     ----
               AG WELLS  =           0.0000                 AG WELLS  =           0.0000
      DIVERSION SEGMENTS =           0.0000        DIVERSION SEGMENTS =           0.0000
           GW IRRIGATION =   784511488.0000             GW IRRIGATION =          87.0579
           SW IRRIGATION =           0.0000             SW IRRIGATION =           0.0000
        SYSTEM LOSSES GW =           0.0000          SYSTEM LOSSES GW =           0.0000
        SYSTEM LOSSES SW =           0.0000          SYSTEM LOSSES SW =           0.0000

               TOTAL OUT =   784511488.0000                 TOTAL OUT =          87.0579

                IN - OUT =           0.0000                  IN - OUT =           0.0000

     PERCENT DISCREPANCY =           0.00         PERCENT DISCREPANCY =           0.00



1
  VOLUMETRIC BUDGET FOR ENTIRE MODEL AT END OF TIME STEP   30, STRESS PERIOD  20
  ------------------------------------------------------------------------------

     CUMULATIVE VOLUMES      L**3       RATES FOR THIS TIME STEP      L**3/T
     ------------------                 ------------------------

           IN:                                      IN:
           ---                                      ---
             STORAGE     =   928870720.0000               STORAGE     =          86.0171
       CONSTANT HEAD     =           0.0000         CONSTANT HEAD     =           0.0000
     HEAD DEP BOUNDS     =    14287138.0000       HEAD DEP BOUNDS     =           0.2856
      STREAM LEAKAGE     =   629772160.0000        STREAM LEAKAGE     =          12.4350
        UZF RECHARGE     =    73804200.0000          UZF RECHARGE     =           0.0000
               GW ET     =           0.0000                 GW ET     =           0.0000
     SURFACE LEAKAGE     =           0.0000       SURFACE LEAKAGE     =           0.0000
           AG WELLS      =           0.0000             AG WELLS      =           0.0000

                TOTAL IN =  1646734208.0000                  TOTAL IN =          98.7376

          OUT:                                     OUT:
          ----                                     ----
             STORAGE     =   313709760.0000               STORAGE     =           0.2849
       CONSTANT HEAD     =           0.0000         CONSTANT HEAD     =           0.0000
     HEAD DEP BOUNDS     =    14756540.0000       HEAD DEP BOUNDS     =           0.2953
      STREAM LEAKAGE     =   516502976.0000        STREAM LEAKAGE     =          10.8669
        UZF RECHARGE     =           0.0000          UZF RECHARGE     =           0.0000
               GW ET     =    17246068.0000                 GW ET     =           0.2300
     SURFACE LEAKAGE     =           0.0000       SURFACE LEAKAGE     =           0.0000
           AG WELLS      =   784511488.0000             AG WELLS      =          87.0579

               TOTAL OUT =  1646726912.0000                 TOTAL OUT =          98.7350

                IN - OUT =        7296.0000                  IN - OUT =       2.6627E-03

     PERCENT DISCREPANCY =           0.00         PERCENT DISCREPANCY =           0.00






         TIME SUMMARY AT END OF TIME STEP   30 IN STRESS PERIOD   20
                    SECONDS     MINUTES      HOURS       DAYS        YEARS
                    -----------------------------------------------------------
   TIME STEP LENGTH  87667.      1461.1      24.352      1.0147     2.77799E-03
 STRESS PERIOD TIME 2.63000E+06  43833.      730.56      30.440     8.33397E-02
         TOTAL TIME 5.00565E+07 8.34276E+05  13905.      579.36      1.5862    
1
1
                            STRESS PERIOD NO.   21, LENGTH =   2630000.    
                            -----------------------------------------------

                              NUMBER OF TIME STEPS =    30

                               MULTIPLIER FOR DELT =     1.000

                            INITIAL TIME STEP SIZE =   87666.66    

 REUSING NON-PARAMETER GHB CELLS FROM LAST STRESS PERIOD

      2 GHB CELLS

 REUSING STREAM SEGMENT DATA FROM LAST STRESS PERIOD



            AREAL INFILTRATION RATE
 READING ON UNIT   19 WITH FORMAT: (10F4.0)            

            1           2           3           4           5           6           7           8           9          10
 ........................................................................................................................
   1   1.2000E-09   0.000       0.000       0.000       0.000       0.000       0.000       0.000       0.000       0.000    
   2   2.1000E-09  2.0000E-09  8.0000E-10  8.5000E-09   0.000       0.000       0.000       0.000       0.000       0.000    
   3   5.0000E-10  1.1000E-09  8.8000E-09  5.5000E-09   0.000       0.000       0.000       0.000       0.000       0.000    
   4   8.5000E-09  1.1000E-09  1.1000E-09  1.1000E-09  2.0000E-09   0.000       0.000       0.000       0.000       0.000    
   5   8.5000E-09  1.1000E-09  1.1000E-09  1.1000E-09  1.1000E-09   0.000       0.000       0.000       0.000       0.000    
   6   8.5000E-09  5.2000E-09  2.1000E-09  1.1000E-09  1.5000E-09   0.000       0.000       0.000       0.000       0.000    
   7   8.5000E-09  5.2000E-09  2.1000E-09  1.2000E-09  2.0000E-09   0.000       0.000       0.000       0.000       0.000    
   8   5.0000E-10  5.2000E-09  2.1000E-09  1.2000E-09  5.0000E-09   0.000       0.000       0.000       0.000       0.000    
   9   5.0000E-10  5.2000E-09  2.1000E-09  1.2000E-09  5.0000E-09   0.000       0.000       0.000       0.000       0.000    
  10   5.0000E-10  5.2000E-09  2.1000E-09  1.2000E-09  5.8000E-09   0.000       0.000       0.000       0.000       0.000    
  11   1.0000E-10  1.1000E-09  1.1000E-09  1.2000E-09  5.0000E-09   0.000       0.000       0.000       0.000       0.000    
  12   1.1000E-09  1.1000E-09  1.1000E-09  1.1000E-09  2.0000E-09   0.000       0.000       0.000       0.000       0.000    
  13   1.1000E-09  2.2000E-09  2.2000E-09  2.1000E-09  1.0000E-09   0.000       0.000       0.000       0.000       0.000    
  14   2.0000E-10  5.5000E-09  5.5000E-09  5.2000E-09  1.0000E-09   0.000       0.000       0.000       0.000       0.000    
  15    0.000      8.8000E-09  8.8000E-09   0.000       0.000       0.000       0.000       0.000       0.000       0.000    

                  ET RATE =  3.250000E-07

 USING ET EXTINCTION DEPTH FROM PREVIOUS STRESS PERIOD. CURRENT PERIOD IS:      21

 USING EXTINCTION WATER CONTENT FROM PREVIOUS STRESS PERIOD. CURRENT PERIOD IS:      21

 USING AIR ENTRY PRESSURE FROM PREVIOUS STRESS PERIOD. CURRENT PERIOD IS:      21

 USING ROOT PRESSURE HEAD FROM PREVIOUS STRESS PERIOD. CURRENT PERIOD IS:      21

 USING ROOT ACTIVITY FROM PREVIOUS STRESS PERIOD. CURRENT PERIOD IS:      21

 PROCESSING AG STRESS PERIOD DATA

 READING AG STRESS PERIOD DATA

 READING IRRIGATION WELL

 END PROCESSING AG STRESS PERIOD DATA OPTIONS
 
 SOLVING FOR HEAD 
                                                   Max.-Head-Change                         Max.-Flux-Residual
  Residual-Control   Outer-Iter.   Inner-Iter.     Column Row Layer    Maximum-Head-Change  Column Row Layer    Maximum-Flux-Residual          L2-NORM 
          0                 1           2             4    7     1      -0.6807832650E-01       4    7    1        -0.3608690255E+01      0.9718803168E+01
          0                 2           2             4    7     1       0.6622019075E-02       4    7    1         0.3608588968E+00      0.9718875725E+00
          0                 3           2             4    7     1      -0.4509363739E-03       4    7    1        -0.2526022951E-01      0.6806978859E-01
          0                 4           1             4    7     1       0.1794317301E-04       4    7    1         0.1033144374E-02      0.2789833170E-02

    ------------------------------------------------
       NWT REQUIRED            4 OUTER ITERATIONS 
       AND A TOTAL OF          7 INNER ITERATIONS.
    ------------------------------------------------

 NO OUTPUT CONTROL FOR STRESS PERIOD   21   TIME STEP    1
 
 SOLVING FOR HEAD 
                                                   Max.-Head-Change                         Max.-Flux-Residual
  Residual-Control   Outer-Iter.   Inner-Iter.     Column Row Layer    Maximum-Head-Change  Column Row Layer    Maximum-Flux-Residual          L2-NORM 
          0                 1           2             4    7     1      -0.6677515386E-01       4    7    1        -0.3537158849E+01      0.9590862832E+01
          0                 2           2             4    7     1       0.6473261214E-02       4    7    1         0.3522222289E+00      0.9587920657E+00
          0                 3           2             4    7     1      -0.4408062359E-03       4    7    1        -0.2465564347E-01      0.6710986347E-01
          0                 4           1             4    7     1       0.1754008699E-04       4    7    1         0.1008416862E-02      0.2744453146E-02

    ------------------------------------------------
       NWT REQUIRED            4 OUTER ITERATIONS 
       AND A TOTAL OF          7 INNER ITERATIONS.
    ------------------------------------------------

 NO OUTPUT CONTROL FOR STRESS PERIOD   21   TIME STEP    2
 
 SOLVING FOR HEAD 
                                                   Max.-Head-Change                         Max.-Flux-Residual
  Residual-Control   Outer-Iter.   Inner-Iter.     Column Row Layer    Maximum-Head-Change  Column Row Layer    Maximum-Flux-Residual          L2-NORM 
          0                 1           2             4    7     1      -0.6560365181E-01       4    7    1        -0.3470616835E+01      0.9474663098E+01
          0                 2           2             4    7     1       0.6381333323E-02       4    7    1         0.3470538567E+00      0.9474052881E+00
          0                 3           2             4    7     1      -0.4345462479E-03       4    7    1        -0.2429385452E-01      0.6631382474E-01
          0                 4           1             4    7     1       0.1729099645E-04       4    7    1         0.9936196909E-03      0.2711966717E-02

    ------------------------------------------------
       NWT REQUIRED            4 OUTER ITERATIONS 
       AND A TOTAL OF          7 INNER ITERATIONS.
    ------------------------------------------------

 NO OUTPUT CONTROL FOR STRESS PERIOD   21   TIME STEP    3
 
 SOLVING FOR HEAD 
                                                   Max.-Head-Change                         Max.-Flux-Residual
  Residual-Control   Outer-Iter.   Inner-Iter.     Column Row Layer    Maximum-Head-Change  Column Row Layer    Maximum-Flux-Residual          L2-NORM 
          0                 1           2             4    7     1      -0.6447113217E-01       4    7    1        -0.3408584368E+01      0.9368599372E+01
          0                 2           2             4    7     1       0.6271176577E-02       4    7    1         0.3408509663E+00      0.9369624319E+00
          0                 3           2             4    7     1      -0.4270449326E-03       4    7    1        -0.2385964863E-01      0.6558367960E-01
          0                 4           1             4    7     1       0.1699251215E-04       4    7    1         0.9758606511E-03      0.2682165978E-02

    ------------------------------------------------
       NWT REQUIRED            4 OUTER ITERATIONS 
       AND A TOTAL OF          7 INNER ITERATIONS.
    ------------------------------------------------

 NO OUTPUT CONTROL FOR STRESS PERIOD   21   TIME STEP    4
 
 SOLVING FOR HEAD 
                                                   Max.-Head-Change                         Max.-Flux-Residual
  Residual-Control   Outer-Iter.   Inner-Iter.     Column Row Layer    Maximum-Head-Change  Column Row Layer    Maximum-Flux-Residual          L2-NORM 
          0                 1           2             4    7     1      -0.6339660684E-01       4    7    1        -0.3349732468E+01      0.9271226858E+01
          0                 2           2             4    7     1       0.6166657856E-02       4    7    1         0.3349661158E+00      0.9270800284E+00
          0                 3           2             4    7     1      -0.4199275484E-03       4    7    1        -0.2344770571E-01      0.6489253968E-01
          0                 4           1             4    7     1       0.1670930504E-04       4    7    1         0.9590121851E-03      0.2653911524E-02

    ------------------------------------------------
       NWT REQUIRED            4 OUTER ITERATIONS 
       AND A TOTAL OF          7 INNER ITERATIONS.
    ------------------------------------------------

 NO OUTPUT CONTROL FOR STRESS PERIOD   21   TIME STEP    5
 
 SOLVING FOR HEAD 
                                                   Max.-Head-Change                         Max.-Flux-Residual
  Residual-Control   Outer-Iter.   Inner-Iter.     Column Row Layer    Maximum-Head-Change  Column Row Layer    Maximum-Flux-Residual          L2-NORM 
          0                 1           2             4    7     1      -0.6237713881E-01       4    7    1        -0.3293902221E+01      0.9181505337E+01
          0                 2           2             4    7     1       0.6067495990E-02       4    7    1         0.3293834145E+00      0.9181140481E+00
          0                 3           2             4    7     1      -0.4131749481E-03       4    7    1        -0.2305691339E-01      0.6426540646E-01
          0                 4           1             4    7     1       0.1644061300E-04       4    7    1         0.9430287673E-03      0.2628308059E-02

    ------------------------------------------------
       NWT REQUIRED            4 OUTER ITERATIONS 
       AND A TOTAL OF          7 INNER ITERATIONS.
    ------------------------------------------------

 NO OUTPUT CONTROL FOR STRESS PERIOD   21   TIME STEP    6
 
 SOLVING FOR HEAD 
                                                   Max.-Head-Change                         Max.-Flux-Residual
  Residual-Control   Outer-Iter.   Inner-Iter.     Column Row Layer    Maximum-Head-Change  Column Row Layer    Maximum-Flux-Residual          L2-NORM 
          0                 1           2             4    7     1      -0.6140978700E-01       4    7    1        -0.3240933868E+01      0.9098749296E+01
          0                 2           2             4    7     1       0.5973403397E-02       4    7    1         0.3240868869E+00      0.9098435208E+00
          0                 3           2             4    7     1      -0.4067675487E-03       4    7    1        -0.2268615338E-01      0.6368689610E-01
          0                 4           1             4    7     1       0.1618565694E-04       4    7    1         0.9278646833E-03      0.2604659393E-02

    ------------------------------------------------
       NWT REQUIRED            4 OUTER ITERATIONS 
       AND A TOTAL OF          7 INNER ITERATIONS.
    ------------------------------------------------

 NO OUTPUT CONTROL FOR STRESS PERIOD   21   TIME STEP    7
 
 SOLVING FOR HEAD 
                                                   Max.-Head-Change                         Max.-Flux-Residual
  Residual-Control   Outer-Iter.   Inner-Iter.     Column Row Layer    Maximum-Head-Change  Column Row Layer    Maximum-Flux-Residual          L2-NORM 
          0                 1           2             4    7     1      -0.6049174086E-01       4    7    1        -0.3190674989E+01      0.9022219122E+01
          0                 2           2             4    7     1       0.5884106692E-02       4    7    1         0.3190612916E+00      0.9021946811E+00
          0                 3           2             4    7     1      -0.4006867336E-03       4    7    1        -0.2233435879E-01      0.6315180573E-01
          0                 4           1             4    7     1       0.1594369602E-04       4    7    1         0.9134762774E-03      0.2582777302E-02

    ------------------------------------------------
       NWT REQUIRED            4 OUTER ITERATIONS 
       AND A TOTAL OF          7 INNER ITERATIONS.
    ------------------------------------------------

 NO OUTPUT CONTROL FOR STRESS PERIOD   21   TIME STEP    8
 
 SOLVING FOR HEAD 
                                                   Max.-Head-Change                         Max.-Flux-Residual
  Residual-Control   Outer-Iter.   Inner-Iter.     Column Row Layer    Maximum-Head-Change  Column Row Layer    Maximum-Flux-Residual          L2-NORM 
          0                 1           2             4    7     1      -0.5962018976E-01       4    7    1        -0.3142972627E+01      0.8951250637E+01
          0                 2           2             4    7     1       0.5799332485E-02       4    7    1         0.3142913334E+00      0.8951012751E+00
          0                 3           2             4    7     1      -0.3949138858E-03       4    7    1        -0.2200045894E-01      0.6265553146E-01
          0                 4           1             4    7     1       0.1571398883E-04       4    7    1         0.8998197634E-03      0.2562496640E-02

    ------------------------------------------------
       NWT REQUIRED            4 OUTER ITERATIONS 
       AND A TOTAL OF          7 INNER ITERATIONS.
    ------------------------------------------------

 NO OUTPUT CONTROL FOR STRESS PERIOD   21   TIME STEP    9
 
 SOLVING FOR HEAD 
                                                   Max.-Head-Change                         Max.-Flux-Residual
  Residual-Control   Outer-Iter.   Inner-Iter.     Column Row Layer    Maximum-Head-Change  Column Row Layer    Maximum-Flux-Residual          L2-NORM 
          0                 1           2             4    7     1      -0.5879258777E-01       4    7    1        -0.3097688279E+01      0.8885254781E+01
          0                 2           2             4    7     1       0.5718833133E-02       4    7    1         0.3097631626E+00      0.8885045458E+00
          0                 3           2             4    7     1      -0.3894321419E-03       4    7    1        -0.2168348436E-01      0.6219398053E-01
          0                 4           1             4    7     1       0.1549586566E-04       4    7    1         0.8868555096E-03      0.2543637934E-02

    ------------------------------------------------
       NWT REQUIRED            4 OUTER ITERATIONS 
       AND A TOTAL OF          7 INNER ITERATIONS.
    ------------------------------------------------

 NO OUTPUT CONTROL FOR STRESS PERIOD   21   TIME STEP   10
 
 SOLVING FOR HEAD 
                                                   Max.-Head-Change                         Max.-Flux-Residual
  Residual-Control   Outer-Iter.   Inner-Iter.     Column Row Layer    Maximum-Head-Change  Column Row Layer    Maximum-Flux-Residual          L2-NORM 
          0                 1           2             4    7     1      -0.5800651277E-01       4    7    1        -0.3054689935E+01      0.8823714673E+01
          0                 2           2             4    7     1       0.5642373034E-02       4    7    1         0.3054635786E+00      0.8823519700E+00
          0                 3           2             4    7     1      -0.3842254570E-03       4    7    1        -0.2138251096E-01      0.6176366343E-01
          0                 4           1             4    7     1       0.1528868664E-04       4    7    1         0.8745456685E-03      0.2526051758E-02

    ------------------------------------------------
       NWT REQUIRED            4 OUTER ITERATIONS 
       AND A TOTAL OF          7 INNER ITERATIONS.
    ------------------------------------------------

 NO OUTPUT CONTROL FOR STRESS PERIOD   21   TIME STEP   11
 
 SOLVING FOR HEAD 
                                                   Max.-Head-Change                         Max.-Flux-Residual
  Residual-Control   Outer-Iter.   Inner-Iter.     Column Row Layer    Maximum-Head-Change  Column Row Layer    Maximum-Flux-Residual          L2-NORM 
          0                 1           2             4    7     1      -0.5725953836E-01       4    7    1        -0.3013844780E+01      0.8766187748E+01
          0                 2           2             4    7     1       0.5569716177E-02       4    7    1         0.3013793006E+00      0.8766021040E+00
          0                 3           2             4    7     1      -0.3792777616E-03       4    7    1        -0.2109660913E-01      0.6136116646E-01
          0                 4           1             4    7     1       0.1509181337E-04       4    7    1         0.8628522878E-03      0.2509601369E-02

    ------------------------------------------------
       NWT REQUIRED            4 OUTER ITERATIONS 
       AND A TOTAL OF          7 INNER ITERATIONS.
    ------------------------------------------------

 NO OUTPUT CONTROL FOR STRESS PERIOD   21   TIME STEP   12
 
 SOLVING FOR HEAD 
                                                   Max.-Head-Change                         Max.-Flux-Residual
  Residual-Control   Outer-Iter.   Inner-Iter.     Column Row Layer    Maximum-Head-Change  Column Row Layer    Maximum-Flux-Residual          L2-NORM 
          0                 1           2             4    7     1      -0.5654934988E-01       4    7    1        -0.2975027006E+01      0.8712242657E+01
          0                 2           2             4    7     1       0.5500637411E-02       4    7    1         0.2974977483E+00      0.8712091784E+00
          0                 3           2             4    7     1      -0.3745737225E-03       4    7    1        -0.2082489823E-01      0.6098377980E-01
          0                 4           1             4    7     1       0.1490463558E-04       4    7    1         0.8517393001E-03      0.2494168711E-02

    ------------------------------------------------
       NWT REQUIRED            4 OUTER ITERATIONS 
       AND A TOTAL OF          7 INNER ITERATIONS.
    ------------------------------------------------

 NO OUTPUT CONTROL FOR STRESS PERIOD   21   TIME STEP   13
 
 SOLVING FOR HEAD 
                                                   Max.-Head-Change                         Max.-Flux-Residual
  Residual-Control   Outer-Iter.   Inner-Iter.     Column Row Layer    Maximum-Head-Change  Column Row Layer    Maximum-Flux-Residual          L2-NORM 
          0                 1           2             4    7     1      -0.5587416340E-01       4    7    1        -0.2938138270E+01      0.8661539322E+01
          0                 2           2             4    7     1       0.5434963219E-02       4    7    1         0.2938090877E+00      0.8661402843E+00
          0                 3           2             4    7     1      -0.3701015240E-03       4    7    1        -0.2056668987E-01      0.6062909493E-01
          0                 4           1             4    7     1       0.1472668274E-04       4    7    1         0.8411785820E-03      0.2479696178E-02

    ------------------------------------------------
       NWT REQUIRED            4 OUTER ITERATIONS 
       AND A TOTAL OF          7 INNER ITERATIONS.
    ------------------------------------------------

 NO OUTPUT CONTROL FOR STRESS PERIOD   21   TIME STEP   14
 
 SOLVING FOR HEAD 
                                                   Max.-Head-Change                         Max.-Flux-Residual
  Residual-Control   Outer-Iter.   Inner-Iter.     Column Row Layer    Maximum-Head-Change  Column Row Layer    Maximum-Flux-Residual          L2-NORM 
          0                 1           2             4    7     1      -0.5523162131E-01       4    7    1        -0.2903049951E+01      0.8613736919E+01
          0                 2           2             4    7     1       0.5372464274E-02       4    7    1         0.2903004575E+00      0.8613612202E+00
          0                 3           2             4    7     1      -0.3658455492E-03       4    7    1        -0.2032108373E-01      0.6029460762E-01
          0                 4           1             4    7     1       0.1455733361E-04       4    7    1         0.8311332849E-03      0.2465997602E-02

    ------------------------------------------------
       NWT REQUIRED            4 OUTER ITERATIONS 
       AND A TOTAL OF          7 INNER ITERATIONS.
    ------------------------------------------------

 NO OUTPUT CONTROL FOR STRESS PERIOD   21   TIME STEP   15
 
 SOLVING FOR HEAD 
                                                   Max.-Head-Change                         Max.-Flux-Residual
  Residual-Control   Outer-Iter.   Inner-Iter.     Column Row Layer    Maximum-Head-Change  Column Row Layer    Maximum-Flux-Residual          L2-NORM 
          0                 1           2             4    7     1      -0.5462002364E-01       4    7    1        -0.2869668703E+01      0.8568565220E+01
          0                 2           2             4    7     1       0.5312975223E-02       4    7    1         0.2869625234E+00      0.8568451749E+00
          0                 3           2             4    7     1      -0.3617945390E-03       4    7    1        -0.2008742645E-01      0.5997837596E-01
          0                 4           1             4    7     1       0.1439614046E-04       4    7    1         0.8215767039E-03      0.2452949225E-02

    ------------------------------------------------
       NWT REQUIRED            4 OUTER ITERATIONS 
       AND A TOTAL OF          7 INNER ITERATIONS.
    ------------------------------------------------

 NO OUTPUT CONTROL FOR STRESS PERIOD   21   TIME STEP   16
 
 SOLVING FOR HEAD 
                                                   Max.-Head-Change                         Max.-Flux-Residual
  Residual-Control   Outer-Iter.   Inner-Iter.     Column Row Layer    Maximum-Head-Change  Column Row Layer    Maximum-Flux-Residual          L2-NORM 
          0                 1           2             4    7     1      -0.5403736399E-01       4    7    1        -0.2837884712E+01      0.8525753297E+01
          0                 2           2             4    7     1       0.5256300906E-02       4    7    1         0.2837843046E+00      0.8525648804E+00
          0                 3           2             4    7     1      -0.3579352028E-03       4    7    1        -0.1986494932E-01      0.5967902408E-01
          0                 4           1             4    7     1       0.1424257417E-04       4    7    1         0.8124773890E-03      0.2440839630E-02

    ------------------------------------------------
       NWT REQUIRED            4 OUTER ITERATIONS 
       AND A TOTAL OF          7 INNER ITERATIONS.
    ------------------------------------------------

 NO OUTPUT CONTROL FOR STRESS PERIOD   21   TIME STEP   17
 
 SOLVING FOR HEAD 
                                                   Max.-Head-Change                         Max.-Flux-Residual
  Residual-Control   Outer-Iter.   Inner-Iter.     Column Row Layer    Maximum-Head-Change  Column Row Layer    Maximum-Flux-Residual          L2-NORM 
          0                 1           2             4    7     1      -0.5348214524E-01       4    7    1        -0.2807615611E+01      0.8485088717E+01
          0                 2           2             4    7     1       0.5202295700E-02       4    7    1         0.2807575649E+00      0.8484992649E+00
          0                 3           2             4    7     1      -0.3542576243E-03       4    7    1        -0.1965307583E-01      0.5939450380E-01
          0                 4           1             4    7     1       0.1409623997E-04       4    7    1         0.8038117510E-03      0.2429192688E-02

    ------------------------------------------------
       NWT REQUIRED            4 OUTER ITERATIONS 
       AND A TOTAL OF          7 INNER ITERATIONS.
    ------------------------------------------------

 NO OUTPUT CONTROL FOR STRESS PERIOD   21   TIME STEP   18
 
 SOLVING FOR HEAD 
                                                   Max.-Head-Change                         Max.-Flux-Residual
  Residual-Control   Outer-Iter.   Inner-Iter.     Column Row Layer    Maximum-Head-Change  Column Row Layer    Maximum-Flux-Residual          L2-NORM 
          0                 1           2             4    7     1      -0.5295268957E-01       4    7    1        -0.2778769331E+01      0.8446370181E+01
          0                 2           2             4    7     1       0.5150796404E-02       4    7    1         0.2778730978E+00      0.8446281597E+00
          0                 3           2             4    7     1      -0.3507506909E-03       4    7    1        -0.1945116154E-01      0.5912358200E-01
          0                 4           1             4    7     1       0.1395669564E-04       4    7    1         0.7955534477E-03      0.2418133903E-02

    ------------------------------------------------
       NWT REQUIRED            4 OUTER ITERATIONS 
       AND A TOTAL OF          7 INNER ITERATIONS.
    ------------------------------------------------

 NO OUTPUT CONTROL FOR STRESS PERIOD   21   TIME STEP   19
 
 SOLVING FOR HEAD 
                                                   Max.-Head-Change                         Max.-Flux-Residual
  Residual-Control   Outer-Iter.   Inner-Iter.     Column Row Layer    Maximum-Head-Change  Column Row Layer    Maximum-Flux-Residual          L2-NORM 
          0                 1           2             4    7     1      -0.5244728256E-01       4    7    1        -0.2751251656E+01      0.8409405889E+01
          0                 2           2             4    7     1       0.5101636261E-02       4    7    1         0.2751214823E+00      0.8409323638E+00
          0                 3           2             4    7     1      -0.3474030459E-03       4    7    1        -0.1925854694E-01      0.5886490680E-01
          0                 4           1             4    7     1       0.1382348944E-04       4    7    1         0.7876754928E-03      0.2407548069E-02

    ------------------------------------------------
       NWT REQUIRED            4 OUTER ITERATIONS 
       AND A TOTAL OF          7 INNER ITERATIONS.
    ------------------------------------------------

 NO OUTPUT CONTROL FOR STRESS PERIOD   21   TIME STEP   20
 
 SOLVING FOR HEAD 
                                                   Max.-Head-Change                         Max.-Flux-Residual
  Residual-Control   Outer-Iter.   Inner-Iter.     Column Row Layer    Maximum-Head-Change  Column Row Layer    Maximum-Flux-Residual          L2-NORM 
          0                 1           2             4    7     1      -0.5196470189E-01       4    7    1        -0.2724995353E+01      0.8374049119E+01
          0                 2           2             4    7     1       0.5054696377E-02       4    7    1         0.2724959954E+00      0.8373972710E+00
          0                 3           2             4    7     1      -0.3442065936E-03       4    7    1        -0.1907476140E-01      0.5861750941E-01
          0                 4           1             4    7     1       0.1369630027E-04       4    7    1         0.7801586726E-03      0.2397432955E-02

    ------------------------------------------------
       NWT REQUIRED            4 OUTER ITERATIONS 
       AND A TOTAL OF          7 INNER ITERATIONS.
    ------------------------------------------------

 NO OUTPUT CONTROL FOR STRESS PERIOD   21   TIME STEP   21
 
 SOLVING FOR HEAD 
                                                   Max.-Head-Change                         Max.-Flux-Residual
  Residual-Control   Outer-Iter.   Inner-Iter.     Column Row Layer    Maximum-Head-Change  Column Row Layer    Maximum-Flux-Residual          L2-NORM 
          0                 1           2             4    7     1      -0.5150353429E-01       4    7    1        -0.2699922604E+01      0.8340141279E+01
          0                 2           2             4    7     1       0.5009839285E-02       4    7    1         0.2699888558E+00      0.8340069818E+00
          0                 3           2             4    7     1      -0.3411519734E-03       4    7    1        -0.1889926029E-01      0.5838020409E-01
          0                 4           1             4    7     1       0.1357475384E-04       4    7    1         0.7729806700E-03      0.2387732990E-02

    ------------------------------------------------
       NWT REQUIRED            4 OUTER ITERATIONS 
       AND A TOTAL OF          7 INNER ITERATIONS.
    ------------------------------------------------

 NO OUTPUT CONTROL FOR STRESS PERIOD   21   TIME STEP   22
 
 SOLVING FOR HEAD 
                                                   Max.-Head-Change                         Max.-Flux-Residual
  Residual-Control   Outer-Iter.   Inner-Iter.     Column Row Layer    Maximum-Head-Change  Column Row Layer    Maximum-Flux-Residual          L2-NORM 
          0                 1           2             4    7     1      -0.5106258410E-01       4    7    1        -0.2675967348E+01      0.8307576898E+01
          0                 2           2             4    7     1       0.4966948686E-02       4    7    1         0.2675934578E+00      0.8307509841E+00
          0                 3           2             4    7     1      -0.3382312646E-03       4    7    1        -0.1873158114E-01      0.5815232584E-01
          0                 4           1             4    7     1       0.1345853656E-04       4    7    1         0.7661225995E-03      0.2378415158E-02

    ------------------------------------------------
       NWT REQUIRED            4 OUTER ITERATIONS 
       AND A TOTAL OF          7 INNER ITERATIONS.
    ------------------------------------------------

 NO OUTPUT CONTROL FOR STRESS PERIOD   21   TIME STEP   23
 
 SOLVING FOR HEAD 
                                                   Max.-Head-Change                         Max.-Flux-Residual
  Residual-Control   Outer-Iter.   Inner-Iter.     Column Row Layer    Maximum-Head-Change  Column Row Layer    Maximum-Flux-Residual          L2-NORM 
          0                 1           2             4    7     1      -0.5064032474E-01       4    7    1        -0.2653045940E+01      0.8276209331E+01
          0                 2           2             4    7     1       0.4925876092E-02       4    7    1         0.2653014373E+00      0.8276146206E+00
          0                 3           2             4    7     1      -0.3354343561E-03       4    7    1        -0.1857113849E-01      0.5793281374E-01
          0                 4           1             4    7     1       0.1334724490E-04       4    7    1         0.7595604877E-03      0.2369432803E-02

    ------------------------------------------------
       NWT REQUIRED            4 OUTER ITERATIONS 
       AND A TOTAL OF          7 INNER ITERATIONS.
    ------------------------------------------------

 NO OUTPUT CONTROL FOR STRESS PERIOD   21   TIME STEP   24
 
 SOLVING FOR HEAD 
                                                   Max.-Head-Change                         Max.-Flux-Residual
  Residual-Control   Outer-Iter.   Inner-Iter.     Column Row Layer    Maximum-Head-Change  Column Row Layer    Maximum-Flux-Residual          L2-NORM 
          0                 1           2             4    7     1      -0.5023584767E-01       4    7    1        -0.2631108092E+01      0.8245968107E+01
          0                 2           2             4    7     1       0.4886533132E-02       4    7    1         0.2631077660E+00      0.8245908561E+00
          0                 3           2             4    7     1      -0.3327552308E-03       4    7    1        -0.1841758037E-01      0.5772115676E-01
          0                 4           1             4    7     1       0.1324064019E-04       4    7    1         0.7532799591E-03      0.2360774032E-02

    ------------------------------------------------
       NWT REQUIRED            4 OUTER ITERATIONS 
       AND A TOTAL OF          7 INNER ITERATIONS.
    ------------------------------------------------

 NO OUTPUT CONTROL FOR STRESS PERIOD   21   TIME STEP   25
 
 SOLVING FOR HEAD 
                                                   Max.-Head-Change                         Max.-Flux-Residual
  Residual-Control   Outer-Iter.   Inner-Iter.     Column Row Layer    Maximum-Head-Change  Column Row Layer    Maximum-Flux-Residual          L2-NORM 
          0                 1           2             4    7     1      -0.4984817245E-01       4    7    1        -0.2610099478E+01      0.8216743781E+01
          0                 2           2             4    7     1       0.4848824441E-02       4    7    1         0.2610070115E+00      0.8216687456E+00
          0                 3           2             4    7     1      -0.3301873936E-03       4    7    1        -0.1827052648E-01      0.5751678686E-01
          0                 4           1             4    7     1       0.1313846353E-04       4    7    1         0.7472654504E-03      0.2353721543E-02

    ------------------------------------------------
       NWT REQUIRED            4 OUTER ITERATIONS 
       AND A TOTAL OF          7 INNER ITERATIONS.
    ------------------------------------------------

 NO OUTPUT CONTROL FOR STRESS PERIOD   21   TIME STEP   26
 
 SOLVING FOR HEAD 
                                                   Max.-Head-Change                         Max.-Flux-Residual
  Residual-Control   Outer-Iter.   Inner-Iter.     Column Row Layer    Maximum-Head-Change  Column Row Layer    Maximum-Flux-Residual          L2-NORM 
          0                 1           2             4    7     1      -0.4947597931E-01       4    7    1        -0.2589947619E+01      0.8188456413E+01
          0                 2           2             4    7     1       0.4812621647E-02       4    7    1         0.2589919263E+00      0.8188402811E+00
          0                 3           2             4    7     1      -0.3277221030E-03       4    7    1        -0.1812946950E-01      0.5731864700E-01
          0                 4           1             4    7     1       0.1304036698E-04       4    7    1         0.7414961899E-03      0.2344308340E-02

    ------------------------------------------------
       NWT REQUIRED            4 OUTER ITERATIONS 
       AND A TOTAL OF          7 INNER ITERATIONS.
    ------------------------------------------------

 NO OUTPUT CONTROL FOR STRESS PERIOD   21   TIME STEP   27
 
 SOLVING FOR HEAD 
                                                   Max.-Head-Change                         Max.-Flux-Residual
  Residual-Control   Outer-Iter.   Inner-Iter.     Column Row Layer    Maximum-Head-Change  Column Row Layer    Maximum-Flux-Residual          L2-NORM 
          0                 1           2             4    7     1      -0.4911855294E-01       4    7    1        -0.2570612940E+01      0.8161040538E+01
          0                 2           2             4    7     1       0.4777855173E-02       4    7    1         0.2570585534E+00      0.8160989500E+00
          0                 3           2             4    7     1      -0.3253546218E-03       4    7    1        -0.1799413244E-01      0.5712680126E-01
          0                 4           1             4    7     1       0.1294616302E-04       4    7    1         0.7359609183E-03      0.2336476484E-02

    ------------------------------------------------
       NWT REQUIRED            4 OUTER ITERATIONS 
       AND A TOTAL OF          7 INNER ITERATIONS.
    ------------------------------------------------

 NO OUTPUT CONTROL FOR STRESS PERIOD   21   TIME STEP   28
 
 SOLVING FOR HEAD 
                                                   Max.-Head-Change                         Max.-Flux-Residual
  Residual-Control   Outer-Iter.   Inner-Iter.     Column Row Layer    Maximum-Head-Change  Column Row Layer    Maximum-Flux-Residual          L2-NORM 
          0                 1           2             4    7     1      -0.4877496208E-01       4    7    1        -0.2552043924E+01      0.8134413196E+01
          0                 2           2             4    7     1       0.4744434439E-02       4    7    1         0.2552017413E+00      0.8134364452E+00
          0                 3           2             4    7     1      -0.3230787813E-03       4    7    1        -0.1786415469E-01      0.5694043014E-01
          0                 4           1             4    7     1       0.1285560537E-04       4    7    1         0.7306448317E-03      0.2328852933E-02

    ------------------------------------------------
       NWT REQUIRED            4 OUTER ITERATIONS 
       AND A TOTAL OF          7 INNER ITERATIONS.
    ------------------------------------------------

 NO OUTPUT CONTROL FOR STRESS PERIOD   21   TIME STEP   29
 
 SOLVING FOR HEAD 
                                                   Max.-Head-Change                         Max.-Flux-Residual
  Residual-Control   Outer-Iter.   Inner-Iter.     Column Row Layer    Maximum-Head-Change  Column Row Layer    Maximum-Flux-Residual          L2-NORM 
          0                 1           2             4    7     1      -0.4844420097E-01       4    7    1        -0.2534185075E+01      0.8108532793E+01
          0                 2           2             4    7     1       0.4712261617E-02       4    7    1         0.2534159407E+00      0.8108486285E+00
          0                 3           2             4    7     1      -0.3208879197E-03       4    7    1        -0.1773914780E-01      0.5675930283E-01
          0                 4           1             4    7     1       0.1276842937E-04       4    7    1         0.7255320500E-03      0.2321443413E-02

    ------------------------------------------------
       NWT REQUIRED            4 OUTER ITERATIONS 
       AND A TOTAL OF          7 INNER ITERATIONS.
    ------------------------------------------------

 NO OUTPUT CONTROL FOR STRESS PERIOD   21   TIME STEP   30



 STREAM LISTING     PERIOD     21   STEP       30

 LAYER ROW COL. STREAM  RCH.  FLOW INTO     FLOW TO   FLOW OUT OF   OVRLND.     DIRECT     STREAM       STREAM     STREAM     STREAM   STREAMBED  STREAMBED
                SEG.NO.  NO.  STRM. RCH.    AQUIFER    STRM. RCH.    RUNOFF     PRECIP       ET          HEAD       DEPTH      WIDTH   CONDCTNC.   GRADIENT

   1    1    1     1     1    3.7001E+01  2.9351E-01   3.6707E+01  0.000E+00  0.000E+00  0.000E+00  1.09436E+03  1.308E+00  1.514E+01  6.812E-02  1.436E+00
   1    2    2     1     2    3.6707E+01  4.5449E-01   3.6253E+01  0.000E+00  0.000E+00  0.000E+00  1.08936E+03  1.305E+00  1.508E+01  1.056E-01  1.435E+00
   1    3    3     1     3    3.6253E+01  3.8754E-01   3.5865E+01  0.000E+00  0.000E+00  0.000E+00  1.08372E+03  1.302E+00  1.501E+01  9.008E-02  1.434E+00
   1    3    4     1     4    3.5865E+01  3.5682E-01   3.5508E+01  0.000E+00  0.000E+00  0.000E+00  1.07871E+03  1.299E+00  1.495E+01  8.300E-02  1.433E+00
   1    4    5     2     1    3.3508E+01  3.4594E-01   3.3162E+01  0.000E+00  0.000E+00  0.000E+00  1.07337E+03  1.435E+00  1.200E+01  7.800E-02  1.478E+00
   1    5    6     2     2    3.3162E+01  2.6563E-01   3.2897E+01  0.000E+00  0.000E+00  0.000E+00  1.06794E+03  1.427E+00  1.200E+01  6.000E-02  1.476E+00
   1    6    6     2     3    3.2897E+01  2.6522E-01   3.2631E+01  0.000E+00  0.000E+00  0.000E+00  1.06321E+03  1.420E+00  1.200E+01  6.000E-02  1.473E+00
   1    7    6     2     4    3.2631E+01  2.6480E-01   3.2367E+01  0.000E+00  0.000E+00  0.000E+00  1.05849E+03  1.413E+00  1.200E+01  6.000E-02  1.471E+00
   1    8    6     2     5    3.2367E+01  2.6439E-01   3.2102E+01  0.000E+00  0.000E+00  0.000E+00  1.05377E+03  1.406E+00  1.200E+01  6.000E-02  1.469E+00
   1    3    5     3     1    2.0000E+00  2.8252E-01   1.7175E+00  0.000E+00  0.000E+00  0.000E+00  1.07555E+03  1.909E+00  9.636E+00  7.227E-02  1.955E+00
   1    3    6     3     2    1.7175E+00  2.4905E-01   1.4684E+00  0.000E+00  0.000E+00  0.000E+00  1.07264E+03  1.727E+00  8.909E+00  6.682E-02  1.864E+00
   1    3    7     3     3    1.4684E+00  1.9718E-01   1.2712E+00  0.000E+00  0.000E+00  0.000E+00  1.06987E+03  1.555E+00  8.218E+00  5.547E-02  1.777E+00
   1    4    8     3     4    1.2712E+00  2.2567E-01   1.0456E+00  0.000E+00  0.000E+00  0.000E+00  1.06682E+03  1.364E+00  7.455E+00  6.709E-02  1.682E+00
   1    5    8     3     5    1.0456E+00  1.5790E-01   8.8768E-01  0.000E+00  0.000E+00  0.000E+00  1.06362E+03  1.164E+00  6.655E+00  4.991E-02  1.582E+00
   1    6    8     3     6    8.8768E-01  5.5980E-02   8.3170E-01  0.000E+00  0.000E+00  0.000E+00  1.06158E+03  1.036E+00  6.145E+00  1.844E-02  1.518E+00
   1    5   10     4     1    1.0000E+01  9.0919E-02   9.9091E+00  0.000E+00  0.000E+00  0.000E+00  1.07836E+03  6.368E-01  1.000E+01  2.500E-02  1.212E+00
   1    5    9     4     2    9.9091E+00  1.8158E-01   9.7275E+00  0.000E+00  0.000E+00  0.000E+00  1.07154E+03  6.315E-01  1.000E+01  5.000E-02  1.211E+00
   1    6    8     4     3    9.7275E+00  1.2689E-01   9.6006E+00  0.000E+00  0.000E+00  0.000E+00  1.06381E+03  6.256E-01  1.000E+01  3.500E-02  1.209E+00
   1    6    8     5     1    1.0432E+01  2.2686E-01   1.0205E+01  0.000E+00  0.000E+00  0.000E+00  1.05868E+03  6.790E-01  1.542E+01  6.166E-02  1.226E+00
   1    7    7     5     2    1.0205E+01  2.7894E-01   9.9265E+00  0.000E+00  0.000E+00  0.000E+00  1.05417E+03  6.732E-01  1.519E+01  7.594E-02  1.224E+00
   1    8    7     5     3    9.9265E+00  1.9221E-01   9.7343E+00  0.000E+00  0.000E+00  0.000E+00  1.04992E+03  6.676E-01  1.497E+01  5.241E-02  1.223E+00
   1    8    6     5     4    9.7343E+00  1.3577E-01   9.5985E+00  0.000E+00  0.000E+00  0.000E+00  1.04691E+03  6.637E-01  1.482E+01  3.706E-02  1.221E+00
   1    9    6     6     1    4.1701E+01  2.7939E-01   4.1421E+01  0.000E+00  0.000E+00  0.000E+00  1.04438E+03  1.656E+00  1.200E+01  6.000E-02  1.552E+00
   1   10    7     6     2    4.1421E+01  2.7899E-01   4.1142E+01  0.000E+00  0.000E+00  0.000E+00  1.03983E+03  1.650E+00  1.200E+01  6.000E-02  1.550E+00
   1   11    7     6     3    4.1142E+01  2.7859E-01   4.0864E+01  0.000E+00  0.000E+00  0.000E+00  1.03528E+03  1.643E+00  1.200E+01  6.000E-02  1.548E+00
   1   12    7     6     4    4.0864E+01  2.7818E-01   4.0586E+01  0.000E+00  0.000E+00  0.000E+00  1.03073E+03  1.636E+00  1.200E+01  6.000E-02  1.545E+00
   1   13    7     6     5    4.0586E+01  1.1440E-02   4.0574E+01  0.000E+00  0.000E+00  0.000E+00  1.02754E+03  1.633E+00  1.200E+01  2.400E-02  1.589E-01
   1   14    9     7     1    1.5000E+02  1.3336E+00   1.4867E+02  0.000E+00  0.000E+00  0.000E+00  1.03987E+03  2.288E+00  5.529E+01  5.593E-01  7.948E-01
   1   13    8     7     2    1.4867E+02  1.8346E+00   1.4683E+02  0.000E+00  0.000E+00  0.000E+00  1.03478E+03  2.279E+00  5.526E+01  6.148E-01  9.947E-01
   1   13    7     7     3    1.4683E+02  1.4657E+00   1.4537E+02  0.000E+00  0.000E+00  0.000E+00  1.02969E+03  2.270E+00  5.522E+01  5.585E-01  8.748E-01
   1   13    6     8     1    1.8594E+02  9.8012E-01   1.8496E+02  0.000E+00  0.000E+00  0.000E+00  1.02493E+03  3.050E+00  4.423E+01  4.507E-01  7.249E-01
   1   13    5     8     2    1.8496E+02  2.0891E-01   1.8475E+02  0.000E+00  0.000E+00  0.000E+00  1.01867E+03  3.046E+00  4.417E+01  4.501E-01  1.547E-01
   1   13    4     8     3    1.8475E+02 -2.3582E+00   1.8711E+02  0.000E+00  0.000E+00  0.000E+00  1.01243E+03  3.053E+00  4.427E+01  4.511E+00 -1.743E-01
   1   13    3     8     4    1.8711E+02 -3.6215E+00   1.9073E+02  0.000E+00  0.000E+00  0.000E+00  1.00620E+03  3.071E+00  4.453E+01  4.538E+00 -2.660E-01
   1   13    2     8     5    1.9073E+02 -2.5890E+00   1.9332E+02  0.000E+00  0.000E+00  0.000E+00  9.99965E+02  3.090E+00  4.481E+01  4.566E+00 -1.890E-01
   1   13    1     8     6    1.9332E+02 -2.0212E+00   1.9534E+02  0.000E+00  0.000E+00  0.000E+00  9.94979E+02  3.104E+00  4.501E+01  2.752E+00 -2.448E-01





UNSATURATED ZONE PACKAGE VOLUMETRIC BUDGET FOR  TIME STEP    30 STRESS PERIOD   21
  ------------------------------------------------------------------------------



     CUMULATIVE VOLUMES      L**3       RATES FOR THIS TIME STEP      L**3/T
     ------------------                 ------------------------

           IN:                                      IN:
           ---                                      ---
        INFILTRATION =  1143843243.3503          INFILTRATION =          52.8575

          OUT:                                     OUT:
          ----                                     ----
              UZF ET =   945759736.1832                UZF ET =          52.8575
        UZF RECHARGE =    73804203.4082          UZF RECHARGE =       0.0000E+00

            IN - OUT =   124279303.7589              IN - OUT =       0.0000E+00

          STORAGE:                                 STORAGE:
          --------                                 --------
      STORAGE CHANGE =   124280807.8364        STORAGE CHANGE =       1.1995E-13

 PERCENT DISCREPANCY IS DIFFERENCE BETWEEN IN-OUT MINUS CHANGE IN STORAGE
 DIVIDED BY THE AVERAGE OF IN AND OUT TIMES 100

 PERCENT DISCREPANCY =          -0.00     PERCENT DISCREPANCY =           0.00






1
  VOLUMETRIC BUDGET FOR AGRICULTURAL FIELDS AT TIME STEP   30, STRESS PERIOD  21
  ------------------------------------------------------------------------------

     CUMULATIVE VOLUMES      L**3       RATES FOR THIS TIME STEP      L**3/T
     ------------------                 ------------------------

           IN:                                      IN:
           ---                                      ---
               AG WELLS  =   911934208.0000                 AG WELLS  =          48.4500
      DIVERSION SEGMENTS =           0.0000        DIVERSION SEGMENTS =           0.0000
           GW IRRIGATION =           0.0000             GW IRRIGATION =           0.0000
           SW IRRIGATION =           0.0000             SW IRRIGATION =           0.0000
        SYSTEM LOSSES GW =           0.0000          SYSTEM LOSSES GW =           0.0000
        SYSTEM LOSSES SW =           0.0000          SYSTEM LOSSES SW =           0.0000

                TOTAL IN =   911934208.0000                  TOTAL IN =          48.4500

          OUT:                                     OUT:
          ----                                     ----
               AG WELLS  =           0.0000                 AG WELLS  =           0.0000
      DIVERSION SEGMENTS =           0.0000        DIVERSION SEGMENTS =           0.0000
           GW IRRIGATION =   911934208.0000             GW IRRIGATION =          48.4500
           SW IRRIGATION =           0.0000             SW IRRIGATION =           0.0000
        SYSTEM LOSSES GW =           0.0000          SYSTEM LOSSES GW =           0.0000
        SYSTEM LOSSES SW =           0.0000          SYSTEM LOSSES SW =           0.0000

               TOTAL OUT =   911934208.0000                 TOTAL OUT =          48.4500

                IN - OUT =           0.0000                  IN - OUT =           0.0000

     PERCENT DISCREPANCY =           0.00         PERCENT DISCREPANCY =           0.00



1
  VOLUMETRIC BUDGET FOR ENTIRE MODEL AT END OF TIME STEP   30, STRESS PERIOD  21
  ------------------------------------------------------------------------------

     CUMULATIVE VOLUMES      L**3       RATES FOR THIS TIME STEP      L**3/T
     ------------------                 ------------------------

           IN:                                      IN:
           ---                                      ---
             STORAGE     =  1053279232.0000               STORAGE     =          47.0313
       CONSTANT HEAD     =           0.0000         CONSTANT HEAD     =           0.0000
     HEAD DEP BOUNDS     =    15038215.0000       HEAD DEP BOUNDS     =           0.2856
      STREAM LEAKAGE     =   661928000.0000        STREAM LEAKAGE     =          12.2493
        UZF RECHARGE     =    73804200.0000          UZF RECHARGE     =           0.0000
               GW ET     =           0.0000                 GW ET     =           0.0000
     SURFACE LEAKAGE     =           0.0000       SURFACE LEAKAGE     =           0.0000
           AG WELLS      =           0.0000             AG WELLS      =           0.0000

                TOTAL IN =  1804049536.0000                  TOTAL IN =          59.5662

          OUT:                                     OUT:
          ----                                     ----
             STORAGE     =   314358432.0000               STORAGE     =           0.2333
       CONSTANT HEAD     =           0.0000         CONSTANT HEAD     =           0.0000
     HEAD DEP BOUNDS     =    15529529.0000       HEAD DEP BOUNDS     =           0.2931
      STREAM LEAKAGE     =   544931264.0000        STREAM LEAKAGE     =          10.5900
        UZF RECHARGE     =           0.0000          UZF RECHARGE     =           0.0000
               GW ET     =    17288296.0000                 GW ET     =           0.0000
     SURFACE LEAKAGE     =           0.0000       SURFACE LEAKAGE     =           0.0000
           AG WELLS      =   911934208.0000             AG WELLS      =          48.4500

               TOTAL OUT =  1804041728.0000                 TOTAL OUT =          59.5664

                IN - OUT =        7808.0000                  IN - OUT =      -1.6403E-04

     PERCENT DISCREPANCY =           0.00         PERCENT DISCREPANCY =          -0.00






         TIME SUMMARY AT END OF TIME STEP   30 IN STRESS PERIOD   21
                    SECONDS     MINUTES      HOURS       DAYS        YEARS
                    -----------------------------------------------------------
   TIME STEP LENGTH  87667.      1461.1      24.352      1.0147     2.77799E-03
 STRESS PERIOD TIME 2.63000E+06  43833.      730.56      30.440     8.33397E-02
         TOTAL TIME 5.26866E+07 8.78110E+05  14635.      609.80      1.6695    
1
1
                            STRESS PERIOD NO.   22, LENGTH =   2630000.    
                            -----------------------------------------------

                              NUMBER OF TIME STEPS =    30

                               MULTIPLIER FOR DELT =     1.000

                            INITIAL TIME STEP SIZE =   87666.66    

 REUSING NON-PARAMETER GHB CELLS FROM LAST STRESS PERIOD

      2 GHB CELLS

 REUSING STREAM SEGMENT DATA FROM LAST STRESS PERIOD



            AREAL INFILTRATION RATE
 READING ON UNIT   19 WITH FORMAT: (10F4.0)            

            1           2           3           4           5           6           7           8           9          10
 ........................................................................................................................
   1   1.2000E-09   0.000       0.000       0.000       0.000       0.000       0.000       0.000       0.000       0.000    
   2   2.1000E-09  2.0000E-09  8.0000E-10  8.5000E-09   0.000       0.000       0.000       0.000       0.000       0.000    
   3   5.0000E-10  1.1000E-09  8.8000E-09  5.5000E-09   0.000       0.000       0.000       0.000       0.000       0.000    
   4   8.5000E-09  1.1000E-09  1.1000E-09  1.1000E-09  2.0000E-09   0.000       0.000       0.000       0.000       0.000    
   5   8.5000E-09  1.1000E-09  1.1000E-09  1.1000E-09  1.1000E-09   0.000       0.000       0.000       0.000       0.000    
   6   8.5000E-09  5.2000E-09  2.1000E-09  1.1000E-09  1.5000E-09   0.000       0.000       0.000       0.000       0.000    
   7   8.5000E-09  5.2000E-09  2.1000E-09  1.2000E-09  2.0000E-09   0.000       0.000       0.000       0.000       0.000    
   8   5.0000E-10  5.2000E-09  2.1000E-09  1.2000E-09  5.0000E-09   0.000       0.000       0.000       0.000       0.000    
   9   5.0000E-10  5.2000E-09  2.1000E-09  1.2000E-09  5.0000E-09   0.000       0.000       0.000       0.000       0.000    
  10   5.0000E-10  5.2000E-09  2.1000E-09  1.2000E-09  5.8000E-09   0.000       0.000       0.000       0.000       0.000    
  11   1.0000E-10  1.1000E-09  1.1000E-09  1.2000E-09  5.0000E-09   0.000       0.000       0.000       0.000       0.000    
  12   1.1000E-09  1.1000E-09  1.1000E-09  1.1000E-09  2.0000E-09   0.000       0.000       0.000       0.000       0.000    
  13   1.1000E-09  2.2000E-09  2.2000E-09  2.1000E-09  1.0000E-09   0.000       0.000       0.000       0.000       0.000    
  14   2.0000E-10  5.5000E-09  5.5000E-09  5.2000E-09  1.0000E-09   0.000       0.000       0.000       0.000       0.000    
  15    0.000      8.8000E-09  8.8000E-09   0.000       0.000       0.000       0.000       0.000       0.000       0.000    

                  ET RATE =  7.500000E-08

 USING ET EXTINCTION DEPTH FROM PREVIOUS STRESS PERIOD. CURRENT PERIOD IS:      22

 USING EXTINCTION WATER CONTENT FROM PREVIOUS STRESS PERIOD. CURRENT PERIOD IS:      22

 USING AIR ENTRY PRESSURE FROM PREVIOUS STRESS PERIOD. CURRENT PERIOD IS:      22

 USING ROOT PRESSURE HEAD FROM PREVIOUS STRESS PERIOD. CURRENT PERIOD IS:      22

 USING ROOT ACTIVITY FROM PREVIOUS STRESS PERIOD. CURRENT PERIOD IS:      22

 PROCESSING AG STRESS PERIOD DATA

 READING AG STRESS PERIOD DATA

 READING IRRIGATION WELL

 END PROCESSING AG STRESS PERIOD DATA OPTIONS
 
 SOLVING FOR HEAD 
                                                   Max.-Head-Change                         Max.-Flux-Residual
  Residual-Control   Outer-Iter.   Inner-Iter.     Column Row Layer    Maximum-Head-Change  Column Row Layer    Maximum-Flux-Residual          L2-NORM 
          0                 1           2             5    8     1       0.8211503354E-01       5    8    1         0.4459719485E+01      0.1201939352E+02
          0                 2           2             5    8     1      -0.7987403637E-02       5    8    1        -0.4459615308E+00      0.1201866591E+01
          0                 3           2             5    8     1       0.5439140324E-03       5    8    1         0.3121742033E-01      0.8412685541E-01
          0                 4           1             5    8     1      -0.2164284185E-04       5    8    1        -0.1276793800E-02      0.3440557269E-02

    ------------------------------------------------
       NWT REQUIRED            4 OUTER ITERATIONS 
       AND A TOTAL OF          7 INNER ITERATIONS.
    ------------------------------------------------

 NO OUTPUT CONTROL FOR STRESS PERIOD   22   TIME STEP    1
 
 SOLVING FOR HEAD 
                                                   Max.-Head-Change                         Max.-Flux-Residual
  Residual-Control   Outer-Iter.   Inner-Iter.     Column Row Layer    Maximum-Head-Change  Column Row Layer    Maximum-Flux-Residual          L2-NORM 
          0                 1           2             5    8     1       0.7863160855E-01       5    8    1         0.4267118022E+01      0.1166545194E+02
          0                 2           2             5    8     1      -0.7648571129E-02       5    8    1        -0.4267020613E+00      0.1166466080E+01
          0                 3           2             5    8     1       0.5208406994E-03       5    8    1         0.2986925048E-01      0.8164755668E-01
          0                 4           1             5    8     1      -0.2072473263E-04       5    8    1        -0.1221653604E-02      0.3339116868E-02

    ------------------------------------------------
       NWT REQUIRED            4 OUTER ITERATIONS 
       AND A TOTAL OF          7 INNER ITERATIONS.
    ------------------------------------------------

 NO OUTPUT CONTROL FOR STRESS PERIOD   22   TIME STEP    2
 
 SOLVING FOR HEAD 
                                                   Max.-Head-Change                         Max.-Flux-Residual
  Residual-Control   Outer-Iter.   Inner-Iter.     Column Row Layer    Maximum-Head-Change  Column Row Layer    Maximum-Flux-Residual          L2-NORM 
          0                 1           2             5    8     1       0.2673371183E+00       5    8    1         0.1468015590E+02      0.1808436562E+02
          0                 2           2             5    8     1       0.7012376191E-01       5    8    1         0.3876978663E+01      0.4018210879E+01
          0                 3           2             5    8     1       0.1839392341E-01       5    8    1         0.1014460517E+01      0.1017213695E+01
          0                 4           1             5    8     1       0.4824901259E-02       5    8    1         0.2662402606E+00      0.2662566815E+00
          0                 5           1             5    8     1       0.1265620259E-02       5    8    1         0.6983500490E-01      0.6983590248E-01
          0                 6           1             5    8     1       0.3319851617E-03       5    8    1         0.1831833225E-01      0.1831851681E-01
          0                 7           1             5    8     1       0.8708312270E-04       5    8    1         0.4805106779E-02      0.4805155008E-02

    ------------------------------------------------
       NWT REQUIRED            7 OUTER ITERATIONS 
       AND A TOTAL OF         10 INNER ITERATIONS.
    ------------------------------------------------

 NO OUTPUT CONTROL FOR STRESS PERIOD   22   TIME STEP    3
 
 SOLVING FOR HEAD 
                                                   Max.-Head-Change                         Max.-Flux-Residual
  Residual-Control   Outer-Iter.   Inner-Iter.     Column Row Layer    Maximum-Head-Change  Column Row Layer    Maximum-Flux-Residual          L2-NORM 
          0                 1           2             5    8     1       0.1369881571E+00       5    8    1         0.7472263331E+01      0.1281448641E+02
          0                 2           2             5    7     1      -0.7545600733E-02       5    7    1        -0.4142948973E+00      0.1083282351E+01
          0                 3           2             5    7     1       0.5138236533E-03       5    7    1         0.2900066452E-01      0.7582171252E-01
          0                 4           1             5    7     1      -0.2044526475E-04       5    7    1        -0.1186128788E-02      0.3100595360E-02

    ------------------------------------------------
       NWT REQUIRED            4 OUTER ITERATIONS 
       AND A TOTAL OF          7 INNER ITERATIONS.
    ------------------------------------------------

 NO OUTPUT CONTROL FOR STRESS PERIOD   22   TIME STEP    4
 
 SOLVING FOR HEAD 
                                                   Max.-Head-Change                         Max.-Flux-Residual
  Residual-Control   Outer-Iter.   Inner-Iter.     Column Row Layer    Maximum-Head-Change  Column Row Layer    Maximum-Flux-Residual          L2-NORM 
          0                 1           2             5    8     1       0.1295536458E+00       5    8    1         0.7059458169E+01      0.1238148477E+02
          0                 2           2             5    8     1      -0.1259583034E-01       5    8    1        -0.7055978874E+00      0.1237894756E+01
          0                 3           2             5    8     1       0.8571105421E-03       5    8    1         0.4935575692E-01      0.8662924779E-01
          0                 4           1             5    8     1      -0.3406447592E-04       5    8    1        -0.2016210303E-02      0.3541565110E-02

    ------------------------------------------------
       NWT REQUIRED            4 OUTER ITERATIONS 
       AND A TOTAL OF          7 INNER ITERATIONS.
    ------------------------------------------------

 NO OUTPUT CONTROL FOR STRESS PERIOD   22   TIME STEP    5
 
 SOLVING FOR HEAD 
                                                   Max.-Head-Change                         Max.-Flux-Residual
  Residual-Control   Outer-Iter.   Inner-Iter.     Column Row Layer    Maximum-Head-Change  Column Row Layer    Maximum-Flux-Residual          L2-NORM 
          0                 1           2             5    8     1       0.1236556141E+00       5    8    1         0.6732248574E+01      0.1200531891E+02
          0                 2           2             5    8     1      -0.1202237479E-01       5    8    1        -0.6728913201E+00      0.1200295363E+01
          0                 3           2             5    8     1       0.8180887231E-03       5    8    1         0.4706795424E-01      0.8399885514E-01
          0                 4           1             5    8     1      -0.3251361585E-04       5    8    1        -0.1922750184E-02      0.3434084284E-02

    ------------------------------------------------
       NWT REQUIRED            4 OUTER ITERATIONS 
       AND A TOTAL OF          7 INNER ITERATIONS.
    ------------------------------------------------

 NO OUTPUT CONTROL FOR STRESS PERIOD   22   TIME STEP    6
 
 SOLVING FOR HEAD 
                                                   Max.-Head-Change                         Max.-Flux-Residual
  Residual-Control   Outer-Iter.   Inner-Iter.     Column Row Layer    Maximum-Head-Change  Column Row Layer    Maximum-Flux-Residual          L2-NORM 
          0                 1           2             5    8     1       0.1181272695E+00       5    8    1         0.6425761297E+01      0.1165077374E+02
          0                 2           2             5    8     1      -0.1148486525E-01       5    8    1        -0.6422562208E+00      0.1164856713E+01
          0                 3           2             5    8     1       0.7815128959E-03       5    8    1         0.4492504915E-01      0.8151963258E-01
          0                 4           1             5    8     1      -0.3105996837E-04       5    8    1        -0.1835209449E-02      0.3332785550E-02

    ------------------------------------------------
       NWT REQUIRED            4 OUTER ITERATIONS 
       AND A TOTAL OF          7 INNER ITERATIONS.
    ------------------------------------------------

 NO OUTPUT CONTROL FOR STRESS PERIOD   22   TIME STEP    7
 
 SOLVING FOR HEAD 
                                                   Max.-Head-Change                         Max.-Flux-Residual
  Residual-Control   Outer-Iter.   Inner-Iter.     Column Row Layer    Maximum-Head-Change  Column Row Layer    Maximum-Flux-Residual          L2-NORM 
          0                 1           2             5    8     1       0.1129417433E+00       5    8    1         0.6138480191E+01      0.1131609812E+02
          0                 2           2             5    8     1       0.1047429736E-01       5    8    1         0.5875076249E+00      0.1117500256E+01
          0                 3           2             5    8     1       0.2747347975E-02       5    8    1         0.1509439190E+00      0.1650293413E+00
          0                 4           1             5    8     1       0.7206160204E-03       5    8    1         0.3978920451E-01      0.3987734377E-01
          0                 5           1             5    8     1       0.1890141186E-03       5    8    1         0.1042800962E-01      0.1042865574E-01
          0                 6           1             5    8     1       0.4957749960E-04       5    8    1         0.2735147141E-02      0.2735335564E-02

    ------------------------------------------------
       NWT REQUIRED            6 OUTER ITERATIONS 
       AND A TOTAL OF          9 INNER ITERATIONS.
    ------------------------------------------------

 NO OUTPUT CONTROL FOR STRESS PERIOD   22   TIME STEP    8
 
 SOLVING FOR HEAD 
                                                   Max.-Head-Change                         Max.-Flux-Residual
  Residual-Control   Outer-Iter.   Inner-Iter.     Column Row Layer    Maximum-Head-Change  Column Row Layer    Maximum-Flux-Residual          L2-NORM 
          0                 1           2             5    8     1       0.1065267452E+00       5    8    1         0.5782369807E+01      0.1096604973E+02
          0                 2           2             5    8     1       0.2794093489E-01       5    8    1         0.1551689013E+01      0.1809929822E+01
          0                 3           2             5    8     1       0.7328577542E-02       5    8    1         0.4037381200E+00      0.4090503451E+00
          0                 4           1             5    8     1       0.1922210090E-02       5    8    1         0.1060946570E+00      0.1061240070E+00
          0                 5           1             5    8     1       0.5041762196E-03       5    8    1         0.2782076785E-01      0.2782135329E-01
          0                 6           1             5    8     1       0.1322403439E-03       5    8    1         0.7297293922E-02      0.7297362107E-02
          0                 7           1             5    8     1       0.3468531245E-04       5    8    1         0.1914005741E-02      0.1914025352E-02

    ------------------------------------------------
       NWT REQUIRED            7 OUTER ITERATIONS 
       AND A TOTAL OF         10 INNER ITERATIONS.
    ------------------------------------------------

 NO OUTPUT CONTROL FOR STRESS PERIOD   22   TIME STEP    9
 
 SOLVING FOR HEAD 
                                                   Max.-Head-Change                         Max.-Flux-Residual
  Residual-Control   Outer-Iter.   Inner-Iter.     Column Row Layer    Maximum-Head-Change  Column Row Layer    Maximum-Flux-Residual          L2-NORM 
          0                 1           2             5    8     1       0.9905437113E-01       5    8    1         0.5367098080E+01      0.1060855093E+02
          0                 2           2             5    7     1      -0.7070474776E-02       5    7    1        -0.3872113226E+00      0.9774503730E+00
          0                 3           2             5    7     1       0.4814684690E-03       5    7    1         0.2710479545E-01      0.6841342786E-01
          0                 4           1             5    7     1      -0.1915778382E-04       5    7    1        -0.1108587715E-02      0.2797599111E-02

    ------------------------------------------------
       NWT REQUIRED            4 OUTER ITERATIONS 
       AND A TOTAL OF          7 INNER ITERATIONS.
    ------------------------------------------------

 NO OUTPUT CONTROL FOR STRESS PERIOD   22   TIME STEP   10
 
 SOLVING FOR HEAD 
                                                   Max.-Head-Change                         Max.-Flux-Residual
  Residual-Control   Outer-Iter.   Inner-Iter.     Column Row Layer    Maximum-Head-Change  Column Row Layer    Maximum-Flux-Residual          L2-NORM 
          0                 1           2             5    8     1       0.9487233216E-01       5    8    1         0.5136109318E+01      0.1032905799E+02
          0                 2           2             5    8     1      -0.9223842706E-02       5    8    1        -0.5133488516E+00      0.1032747703E+01
          0                 3           2             5    8     1       0.6276573772E-03       5    8    1         0.3590805644E-01      0.7227770901E-01
          0                 4           1             5    8     1      -0.2494522687E-04       5    8    1        -0.1466852255E-02      0.2955173630E-02

    ------------------------------------------------
       NWT REQUIRED            4 OUTER ITERATIONS 
       AND A TOTAL OF          7 INNER ITERATIONS.
    ------------------------------------------------

 NO OUTPUT CONTROL FOR STRESS PERIOD   22   TIME STEP   11
 
 SOLVING FOR HEAD 
                                                   Max.-Head-Change                         Max.-Flux-Residual
  Residual-Control   Outer-Iter.   Inner-Iter.     Column Row Layer    Maximum-Head-Change  Column Row Layer    Maximum-Flux-Residual          L2-NORM 
          0                 1           2             4    8     1       0.1589250388E+00       4    8    1         0.8522633716E+01      0.1265969411E+02
          0                 2           2             4    8     1      -0.1545145024E-01       4    8    1        -0.8518495498E+00      0.1265558918E+01
          0                 3           2             4    8     1       0.1051403829E-02       4    8    1         0.5958494729E-01      0.8854820466E-01
          0                 4           1             4    8     1      -0.4178505024E-04       4    8    1        -0.2434031536E-02      0.3618854248E-02

    ------------------------------------------------
       NWT REQUIRED            4 OUTER ITERATIONS 
       AND A TOTAL OF          7 INNER ITERATIONS.
    ------------------------------------------------

 NO OUTPUT CONTROL FOR STRESS PERIOD   22   TIME STEP   12
 
 SOLVING FOR HEAD 
                                                   Max.-Head-Change                         Max.-Flux-Residual
  Residual-Control   Outer-Iter.   Inner-Iter.     Column Row Layer    Maximum-Head-Change  Column Row Layer    Maximum-Flux-Residual          L2-NORM 
          0                 1           2             5    7     1       0.2051595991E+00       5    7    1         0.1116480849E+02      0.1610051033E+02
          0                 2           2             5    7     1      -0.1994744112E-01       5    7    1        -0.1115993820E+01      0.1609398670E+01
          0                 3           2             5    7     1       0.1357351586E-02       5    7    1         0.7806179958E-01      0.1125889728E+00
          0                 4           1             5    7     1      -0.5394536526E-04       5    7    1        -0.3188866066E-02      0.4600245188E-02

    ------------------------------------------------
       NWT REQUIRED            4 OUTER ITERATIONS 
       AND A TOTAL OF          7 INNER ITERATIONS.
    ------------------------------------------------

 NO OUTPUT CONTROL FOR STRESS PERIOD   22   TIME STEP   13
 
 SOLVING FOR HEAD 
                                                   Max.-Head-Change                         Max.-Flux-Residual
  Residual-Control   Outer-Iter.   Inner-Iter.     Column Row Layer    Maximum-Head-Change  Column Row Layer    Maximum-Flux-Residual          L2-NORM 
          0                 1           2             4    8     1       0.1449249956E+00       4    8    1         0.7758016076E+01      0.1524729096E+02
          0                 2           2             5    6     1       0.1606073400E-01       5    6    1         0.9004218338E+00      0.1493906108E+01
          0                 3           2             4    8     1      -0.2404487568E-02       4    8    1        -0.1348610961E+00      0.1794792687E+00
          0                 4           2             4    8     1      -0.6935486240E-03       4    8    1        -0.3865396918E-01      0.3928795614E-01
          0                 5           2             4    8     1      -0.2000421680E-03       4    8    1        -0.1115757137E-01      0.1116056033E-01
          0                 6           1             4    8     1      -0.5769738324E-04       4    8    1        -0.3218009231E-02      0.3218037561E-02

    ------------------------------------------------
       NWT REQUIRED            6 OUTER ITERATIONS 
       AND A TOTAL OF         11 INNER ITERATIONS.
    ------------------------------------------------

 NO OUTPUT CONTROL FOR STRESS PERIOD   22   TIME STEP   14
 
 SOLVING FOR HEAD 
                                                   Max.-Head-Change                         Max.-Flux-Residual
  Residual-Control   Outer-Iter.   Inner-Iter.     Column Row Layer    Maximum-Head-Change  Column Row Layer    Maximum-Flux-Residual          L2-NORM 
          0                 1           2             4    8     1       0.1406432610E+00       4    8    1         0.7524218763E+01      0.1495347952E+02
          0                 2           2             4    8     1       0.3783022731E-01       4    8    1         0.2059627630E+01      0.2769717948E+01
          0                 3           2             4    8     1       0.1013927599E-01       4    8    1         0.5506005003E+00      0.6895494696E+00
          0                 4           2             4    8     1       0.2719094652E-02       4    8    1         0.1476583234E+00      0.1823673740E+00
          0                 5           2             4    8     1       0.7296264493E-03       4    8    1         0.3960048229E-01      0.4844510795E-01
          0                 6           2             4    8     1       0.1959054784E-03       4    8    1         0.1062756895E-01      0.1289326162E-01
          0                 7           1             4    8     1       0.5263442830E-04       4    8    1         0.2853808922E-02      0.3437460240E-02

    ------------------------------------------------
       NWT REQUIRED            7 OUTER ITERATIONS 
       AND A TOTAL OF         13 INNER ITERATIONS.
    ------------------------------------------------

 NO OUTPUT CONTROL FOR STRESS PERIOD   22   TIME STEP   15
 
 SOLVING FOR HEAD 
                                                   Max.-Head-Change                         Max.-Flux-Residual
  Residual-Control   Outer-Iter.   Inner-Iter.     Column Row Layer    Maximum-Head-Change  Column Row Layer    Maximum-Flux-Residual          L2-NORM 
          0                 1           2             4    8     1       0.1337133370E+00       4    8    1         0.7143969601E+01      0.1446894011E+02
          0                 2           2             5    8     1       0.2408440918E-01       5    8    1         0.1318833195E+01      0.1784974154E+01
          0                 3           2             5    8     1       0.6316846421E-02       5    8    1         0.3496624132E+00      0.3637789219E+00
          0                 4           2             5    8     1       0.1656778558E-02       5    8    1         0.9135171324E-01      0.9155461057E-01
          0                 5           1             5    8     1       0.4345395711E-03       5    8    1         0.2398256728E-01      0.2398317332E-01
          0                 6           1             5    8     1       0.1139709609E-03       5    8    1         0.6289185218E-02      0.6289279873E-02
          0                 7           1             5    8     1       0.2989228571E-04       5    8    1         0.1649567534E-02      0.1649583395E-02

    ------------------------------------------------
       NWT REQUIRED            7 OUTER ITERATIONS 
       AND A TOTAL OF         11 INNER ITERATIONS.
    ------------------------------------------------

 NO OUTPUT CONTROL FOR STRESS PERIOD   22   TIME STEP   16
 
 SOLVING FOR HEAD 
                                                   Max.-Head-Change                         Max.-Flux-Residual
  Residual-Control   Outer-Iter.   Inner-Iter.     Column Row Layer    Maximum-Head-Change  Column Row Layer    Maximum-Flux-Residual          L2-NORM 
          0                 1           2             4    8     1       0.1302016618E+00       4    8    1         0.6953907501E+01      0.1406814281E+02
          0                 2           2             5    8     1       0.2258113265E-01       5    8    1         0.1266828797E+01      0.1837357865E+01
          0                 3           2             5    8     1       0.3295390797E-02       5    8    1         0.1804136346E+00      0.2032826100E+00
          0                 4           1             5    8     1      -0.3203851835E-03       5    8    1        -0.1812468480E-01      0.1849197280E-01
          0                 5           1             5    8     1       0.2180132244E-04       5    8    1         0.1271504909E-02      0.1272042501E-02

    ------------------------------------------------
       NWT REQUIRED            5 OUTER ITERATIONS 
       AND A TOTAL OF          8 INNER ITERATIONS.
    ------------------------------------------------

 NO OUTPUT CONTROL FOR STRESS PERIOD   22   TIME STEP   17
 
 SOLVING FOR HEAD 
                                                   Max.-Head-Change                         Max.-Flux-Residual
  Residual-Control   Outer-Iter.   Inner-Iter.     Column Row Layer    Maximum-Head-Change  Column Row Layer    Maximum-Flux-Residual          L2-NORM 
          0                 1           2             4    7     1       0.1671339589E+00       4    7    1         0.8869106569E+01      0.1582579781E+02
          0                 2           2             4    7     1       0.2431257624E-01       4    7    1         0.1345586540E+01      0.1768511396E+01
          0                 3           2             4    7     1       0.6500647258E-02       4    7    1         0.3522058469E+00      0.3617716540E+00
          0                 4           1             4    7     1       0.1738126373E-02       4    7    1         0.9464932804E-01      0.9478897941E-01
          0                 5           1             4    7     1       0.4647350207E-03       4    7    1         0.2528770405E-01      0.2531675933E-01
          0                 6           1             4    7     1       0.1242593308E-03       4    7    1         0.6761329902E-02      0.6769778190E-02
          0                 7           1             4    7     1       0.3322401392E-04       4    7    1         0.1807813951E-02      0.1810266720E-02

    ------------------------------------------------
       NWT REQUIRED            7 OUTER ITERATIONS 
       AND A TOTAL OF         10 INNER ITERATIONS.
    ------------------------------------------------

 NO OUTPUT CONTROL FOR STRESS PERIOD   22   TIME STEP   18
 
 SOLVING FOR HEAD 
                                                   Max.-Head-Change                         Max.-Flux-Residual
  Residual-Control   Outer-Iter.   Inner-Iter.     Column Row Layer    Maximum-Head-Change  Column Row Layer    Maximum-Flux-Residual          L2-NORM 
          0                 1           2             4    7     1       0.1566766635E+00       4    7    1         0.8300248127E+01      0.1532272891E+02
          0                 2           2             5    6     1       0.2956997586E-01       5    6    1         0.1645253478E+01      0.2167965978E+01
          0                 3           2             5    6     1       0.7758539491E-02       5    6    1         0.4270730050E+00      0.4424992218E+00
          0                 4           2             5    6     1       0.2035692733E-02       5    6    1         0.1123415817E+00      0.1125311244E+00
          0                 5           2             5    6     1       0.5341271911E-03       5    6    1         0.2946531428E-01      0.2946704444E-01
          0                 6           2             5    6     1       0.1401448952E-03       5    6    1         0.7731545429E-02      0.7731618401E-02
          0                 7           1             5    6     1       0.3677137824E-04       5    6    1         0.2028598723E-02      0.2028620972E-02

    ------------------------------------------------
       NWT REQUIRED            7 OUTER ITERATIONS 
       AND A TOTAL OF         13 INNER ITERATIONS.
    ------------------------------------------------

 NO OUTPUT CONTROL FOR STRESS PERIOD   22   TIME STEP   19
 
 SOLVING FOR HEAD 
                                                   Max.-Head-Change                         Max.-Flux-Residual
  Residual-Control   Outer-Iter.   Inner-Iter.     Column Row Layer    Maximum-Head-Change  Column Row Layer    Maximum-Flux-Residual          L2-NORM 
          0                 1           2             4    7     1       0.1523681096E+00       4    7    1         0.8066110657E+01      0.1496057335E+02
          0                 2           2             4    8     1       0.1589752839E-01       4    8    1         0.8782421597E+00      0.1424326572E+01
          0                 3           2             4    8     1       0.4268742682E-02       4    8    1         0.2304902184E+00      0.2529723914E+00
          0                 4           2             4    8     1       0.1146229818E-02       4    8    1         0.6222763334E-01      0.6470602380E-01
          0                 5           2             4    8     1       0.3077808452E-03       4    8    1         0.1669576616E-01      0.1730549590E-01
          0                 6           1             4    8     1       0.8264377023E-04       4    8    1         0.4483257385E-02      0.4639876486E-02

    ------------------------------------------------
       NWT REQUIRED            6 OUTER ITERATIONS 
       AND A TOTAL OF         11 INNER ITERATIONS.
    ------------------------------------------------

 NO OUTPUT CONTROL FOR STRESS PERIOD   22   TIME STEP   20
 
 SOLVING FOR HEAD 
                                                   Max.-Head-Change                         Max.-Flux-Residual
  Residual-Control   Outer-Iter.   Inner-Iter.     Column Row Layer    Maximum-Head-Change  Column Row Layer    Maximum-Flux-Residual          L2-NORM 
          0                 1           2             4    7     1       0.1514271206E+00       4    7    1         0.7955604718E+01      0.1625729453E+02
          0                 2           2             4    8     1       0.3235227047E-01       5    7    1         0.1787051169E+01      0.2854720091E+01
          0                 3           2             5    7     1       0.8359065144E-02       5    7    1         0.4595373761E+00      0.4695660207E+00
          0                 4           2             5    7     1       0.2191228552E-02       5    7    1         0.1210441346E+00      0.1210959478E+00
          0                 5           2             5    7     1       0.5744040606E-03       5    7    1         0.3170655980E-01      0.3170791253E-01
          0                 6           2             5    7     1       0.1505731202E-03       5    7    1         0.8311860315E-02      0.8312130853E-02
          0                 7           1             5    7     1       0.3947093503E-04       5    7    1         0.2178831327E-02      0.2178906979E-02

    ------------------------------------------------
       NWT REQUIRED            7 OUTER ITERATIONS 
       AND A TOTAL OF         13 INNER ITERATIONS.
    ------------------------------------------------

 NO OUTPUT CONTROL FOR STRESS PERIOD   22   TIME STEP   21
 
 SOLVING FOR HEAD 
                                                   Max.-Head-Change                         Max.-Flux-Residual
  Residual-Control   Outer-Iter.   Inner-Iter.     Column Row Layer    Maximum-Head-Change  Column Row Layer    Maximum-Flux-Residual          L2-NORM 
          0                 1           2             4    7     1       0.1510908016E+00       4    7    1         0.7946852301E+01      0.1593411590E+02
          0                 2           2             4    6     1      -0.1382680549E-01       4    6    1        -0.7610379754E+00      0.1379662990E+01
          0                 3           2             4    7     1      -0.2538097321E-02       4    7    1        -0.1437023282E+00      0.1699506615E+00
          0                 4           1             4    7     1      -0.7293042449E-03       4    7    1        -0.4073377612E-01      0.4090916177E-01
          0                 5           1             4    7     1      -0.2095561080E-03       4    7    1        -0.1172425597E-01      0.1172431530E-01
          0                 6           1             4    7     1      -0.6021181325E-04       4    7    1        -0.3368461912E-02      0.3368500585E-02

    ------------------------------------------------
       NWT REQUIRED            6 OUTER ITERATIONS 
       AND A TOTAL OF          9 INNER ITERATIONS.
    ------------------------------------------------

 NO OUTPUT CONTROL FOR STRESS PERIOD   22   TIME STEP   22
 
 SOLVING FOR HEAD 
                                                   Max.-Head-Change                         Max.-Flux-Residual
  Residual-Control   Outer-Iter.   Inner-Iter.     Column Row Layer    Maximum-Head-Change  Column Row Layer    Maximum-Flux-Residual          L2-NORM 
          0                 1           2             4    7     1       0.1492149917E+00       4    7    1         0.7849985398E+01      0.1565129494E+02
          0                 2           2             4    7     1       0.4036260137E-01       4    7    1         0.2198442758E+01      0.2696054858E+01
          0                 3           2             4    7     1       0.1089511378E-01       4    7    1         0.5876518854E+00      0.6625916575E+00
          0                 4           2             4    7     1       0.2941651359E-02       4    7    1         0.1589906018E+00      0.1788801141E+00
          0                 5           2             4    7     1       0.7944290628E-03       4    7    1         0.4291516648E-01      0.4852878976E-01
          0                 6           2             4    7     1       0.2145957942E-03       4    7    1         0.1159112504E-01      0.1317404143E-01
          0                 7           1             4    7     1       0.5798117451E-04       4    7    1         0.3131234879E-02      0.3576816801E-02

    ------------------------------------------------
       NWT REQUIRED            7 OUTER ITERATIONS 
       AND A TOTAL OF         13 INNER ITERATIONS.
    ------------------------------------------------

 NO OUTPUT CONTROL FOR STRESS PERIOD   22   TIME STEP   23
 
 SOLVING FOR HEAD 
                                                   Max.-Head-Change                         Max.-Flux-Residual
  Residual-Control   Outer-Iter.   Inner-Iter.     Column Row Layer    Maximum-Head-Change  Column Row Layer    Maximum-Flux-Residual          L2-NORM 
          0                 1           2             4    7     1       0.1445310799E+00       4    7    1         0.7599077833E+01      0.1533012236E+02
          0                 2           2             4    6     1       0.2670284799E-01       4    6    1         0.1469061496E+01      0.1847652645E+01
          0                 3           2             4    6     1      -0.2596121543E-02       4    6    1        -0.1464757205E+00      0.1725520147E+00
          0                 4           2             5    8     1       0.2335747939E-03       5    8    1         0.1294253840E-01      0.1679555018E-01
          0                 5           1             5    8     1       0.6125987417E-04       5    8    1         0.3379544496E-02      0.3405759360E-02

    ------------------------------------------------
       NWT REQUIRED            5 OUTER ITERATIONS 
       AND A TOTAL OF          9 INNER ITERATIONS.
    ------------------------------------------------

 NO OUTPUT CONTROL FOR STRESS PERIOD   22   TIME STEP   24
 
 SOLVING FOR HEAD 
                                                   Max.-Head-Change                         Max.-Flux-Residual
  Residual-Control   Outer-Iter.   Inner-Iter.     Column Row Layer    Maximum-Head-Change  Column Row Layer    Maximum-Flux-Residual          L2-NORM 
          0                 1           2             4    7     1       0.1429891013E+00       4    7    1         0.7520890818E+01      0.1504152486E+02
          0                 2           2             5    8     1       0.1996518318E-01       5    8    1         0.1120575024E+01      0.1759531906E+01
          0                 3           2             5    8     1       0.5236261204E-02       5    8    1         0.2876622258E+00      0.3032306594E+00
          0                 4           1             5    8     1       0.1373324959E-02       5    8    1         0.7583532265E-01      0.7600136360E-01
          0                 5           1             5    8     1       0.3601846265E-03       5    8    1         0.1987384344E-01      0.1989460452E-01
          0                 6           1             5    8     1       0.9446636643E-04       5    8    1         0.5212222781E-02      0.5217798801E-02

    ------------------------------------------------
       NWT REQUIRED            6 OUTER ITERATIONS 
       AND A TOTAL OF          9 INNER ITERATIONS.
    ------------------------------------------------

 NO OUTPUT CONTROL FOR STRESS PERIOD   22   TIME STEP   25
 
 SOLVING FOR HEAD 
                                                   Max.-Head-Change                         Max.-Flux-Residual
  Residual-Control   Outer-Iter.   Inner-Iter.     Column Row Layer    Maximum-Head-Change  Column Row Layer    Maximum-Flux-Residual          L2-NORM 
          0                 1           2             4    7     1       0.1412598694E+00       4    7    1         0.7430381768E+01      0.1477924410E+02
          0                 2           2             5    6     1       0.2485574646E-01       5    6    1         0.1385754763E+01      0.2092749063E+01
          0                 3           2             5    6     1       0.6504448729E-02       5    6    1         0.3587967169E+00      0.4479219166E+00
          0                 4           2             5    6     1       0.1702669301E-02       5    6    1         0.9414052125E-01      0.1021505300E+00
          0                 5           2             5    6     1       0.4458299541E-03       5    6    1         0.2463426929E-01      0.2609926994E-01
          0                 6           2             5    6     1       0.1167714945E-03       5    6    1         0.6450656720E-02      0.6831636558E-02
          0                 7           1             5    6     1       0.3059451036E-04       5    6    1         0.1689646683E-02      0.1791942096E-02

    ------------------------------------------------
       NWT REQUIRED            7 OUTER ITERATIONS 
       AND A TOTAL OF         13 INNER ITERATIONS.
    ------------------------------------------------

 NO OUTPUT CONTROL FOR STRESS PERIOD   22   TIME STEP   26
 
 SOLVING FOR HEAD 
                                                   Max.-Head-Change                         Max.-Flux-Residual
  Residual-Control   Outer-Iter.   Inner-Iter.     Column Row Layer    Maximum-Head-Change  Column Row Layer    Maximum-Flux-Residual          L2-NORM 
          0                 1           2             4    7     1       0.1398894518E+00       4    7    1         0.7359515509E+01      0.1450587708E+02
          0                 2           2             5    7     1       0.2922677932E-01       5    7    1         0.1611256464E+01      0.2605599331E+01
          0                 3           2             4    8     1       0.7766905687E-02       5    7    1         0.4235630387E+00      0.6156482906E+00
          0                 4           2             4    8     1       0.2079327114E-02       4    8    1         0.1130789828E+00      0.1597841395E+00
          0                 5           2             4    8     1       0.5568728132E-03       4    8    1         0.3027035505E-01      0.4215286599E-01
          0                 6           2             4    8     1       0.1491957247E-03       4    8    1         0.8107653272E-02      0.1113501375E-01
          0                 7           1             4    8     1       0.3998833411E-04       4    8    1         0.2172346519E-02      0.2944185552E-02

    ------------------------------------------------
       NWT REQUIRED            7 OUTER ITERATIONS 
       AND A TOTAL OF         13 INNER ITERATIONS.
    ------------------------------------------------

 NO OUTPUT CONTROL FOR STRESS PERIOD   22   TIME STEP   27
 
 SOLVING FOR HEAD 
                                                   Max.-Head-Change                         Max.-Flux-Residual
  Residual-Control   Outer-Iter.   Inner-Iter.     Column Row Layer    Maximum-Head-Change  Column Row Layer    Maximum-Flux-Residual          L2-NORM 
          0                 1           2             4    7     1       0.1393744998E+00       4    7    1         0.7339472975E+01      0.1422560556E+02
          0                 2           2             4    7     1       0.3785459750E-01       4    7    1         0.2052739268E+01      0.2289572693E+01
          0                 3           2             4    7     1       0.1010730654E-01       4    7    1         0.5516870142E+00      0.5598401406E+00
          0                 4           2             4    7     1       0.2699410002E-02       4    7    1         0.1469511513E+00      0.1472550295E+00
          0                 5           1             4    7     1       0.7211533651E-03       4    7    1         0.3927175604E-01      0.3929584354E-01
          0                 6           1             4    7     1       0.1927173373E-03       4    7    1         0.1049123983E-01      0.1049288417E-01
          0                 7           1             4    7     1       0.5151789534E-04       4    7    1         0.2803847225E-02      0.2803871897E-02

    ------------------------------------------------
       NWT REQUIRED            7 OUTER ITERATIONS 
       AND A TOTAL OF         11 INNER ITERATIONS.
    ------------------------------------------------

 NO OUTPUT CONTROL FOR STRESS PERIOD   22   TIME STEP   28
 
 SOLVING FOR HEAD 
                                                   Max.-Head-Change                         Max.-Flux-Residual
  Residual-Control   Outer-Iter.   Inner-Iter.     Column Row Layer    Maximum-Head-Change  Column Row Layer    Maximum-Flux-Residual          L2-NORM 
          0                 1           2             4    7     1       0.1348754944E+00       4    7    1         0.7098123367E+01      0.1396125866E+02
          0                 2           2             4    6     1       0.3257651916E-01       4    6    1         0.1786217890E+01      0.2058739383E+01
          0                 3           2             4    6     1       0.8685680792E-02       4    6    1         0.4729766619E+00      0.4784421001E+00
          0                 4           2             4    6     1       0.2315816658E-02       4    6    1         0.1263063624E+00      0.1263364347E+00
          0                 5           2             4    6     1       0.6174540172E-03       4    6    1         0.3366843628E-01      0.3366911154E-01
          0                 6           2             4    6     1       0.1646285505E-03       4    6    1         0.8977155224E-02      0.8977254056E-02
          0                 7           1             4    6     1       0.4389405491E-04       4    6    1         0.2393520262E-02      0.2393549128E-02

    ------------------------------------------------
       NWT REQUIRED            7 OUTER ITERATIONS 
       AND A TOTAL OF         13 INNER ITERATIONS.
    ------------------------------------------------

 NO OUTPUT CONTROL FOR STRESS PERIOD   22   TIME STEP   29
 
 SOLVING FOR HEAD 
                                                   Max.-Head-Change                         Max.-Flux-Residual
  Residual-Control   Outer-Iter.   Inner-Iter.     Column Row Layer    Maximum-Head-Change  Column Row Layer    Maximum-Flux-Residual          L2-NORM 
          0                 1           2             4    7     1       0.1334175421E+00       4    7    1         0.7026515627E+01      0.1323834894E+02
          0                 2           2             4    7     1      -0.1276788338E-01       4    7    1        -0.7022929018E+00      0.1186509502E+01
          0                 3           2             4    7     1       0.8687983015E-03       4    7    1         0.4919798399E-01      0.8409611881E-01
          0                 4           1             4    7     1      -0.3452770955E-04       4    7    1        -0.2016901805E-02      0.3591952604E-02

    ------------------------------------------------
       NWT REQUIRED            4 OUTER ITERATIONS 
       AND A TOTAL OF          7 INNER ITERATIONS.
    ------------------------------------------------

 NO OUTPUT CONTROL FOR STRESS PERIOD   22   TIME STEP   30



 STREAM LISTING     PERIOD     22   STEP       30

 LAYER ROW COL. STREAM  RCH.  FLOW INTO     FLOW TO   FLOW OUT OF   OVRLND.     DIRECT     STREAM       STREAM     STREAM     STREAM   STREAMBED  STREAMBED
                SEG.NO.  NO.  STRM. RCH.    AQUIFER    STRM. RCH.    RUNOFF     PRECIP       ET          HEAD       DEPTH      WIDTH   CONDCTNC.   GRADIENT

   1    1    1     1     1    2.4431E+01  2.4251E-01   2.4189E+01  0.000E+00  0.000E+00  0.000E+00  1.09422E+03  1.170E+00  1.292E+01  5.816E-02  1.390E+00
   1    2    2     1     2    2.4189E+01  3.7499E-01   2.3814E+01  0.000E+00  0.000E+00  0.000E+00  1.08922E+03  1.165E+00  1.286E+01  9.003E-02  1.388E+00
   1    3    3     1     3    2.3814E+01  3.1923E-01   2.3495E+01  0.000E+00  0.000E+00  0.000E+00  1.08358E+03  1.160E+00  1.279E+01  7.674E-02  1.387E+00
   1    3    4     1     4    2.3495E+01  2.9350E-01   2.3201E+01  0.000E+00  0.000E+00  0.000E+00  1.07856E+03  1.155E+00  1.273E+01  7.064E-02  1.385E+00
   1    4    5     2     1    2.1201E+01  3.1894E-01   2.0882E+01  0.000E+00  0.000E+00  0.000E+00  1.07302E+03  1.089E+00  1.200E+01  7.800E-02  1.363E+00
   1    5    6     2     2    2.0882E+01  2.4481E-01   2.0637E+01  0.000E+00  0.000E+00  0.000E+00  1.06759E+03  1.080E+00  1.200E+01  6.000E-02  1.360E+00
   1    6    6     2     3    2.0637E+01  2.4435E-01   2.0393E+01  0.000E+00  0.000E+00  0.000E+00  1.06286E+03  1.072E+00  1.200E+01  6.000E-02  1.357E+00
   1    7    6     2     4    2.0393E+01  2.4389E-01   2.0149E+01  0.000E+00  0.000E+00  0.000E+00  1.05814E+03  1.065E+00  1.200E+01  6.000E-02  1.355E+00
   1    8    6     2     5    2.0149E+01  2.4343E-01   1.9906E+01  0.000E+00  0.000E+00  0.000E+00  1.05342E+03  1.057E+00  1.200E+01  6.000E-02  1.352E+00
   1    3    5     3     1    2.0000E+00  2.8252E-01   1.7175E+00  0.000E+00  0.000E+00  0.000E+00  1.07555E+03  1.909E+00  9.636E+00  7.227E-02  1.955E+00
   1    3    6     3     2    1.7175E+00  2.4905E-01   1.4684E+00  0.000E+00  0.000E+00  0.000E+00  1.07264E+03  1.727E+00  8.909E+00  6.682E-02  1.864E+00
   1    3    7     3     3    1.4684E+00  1.9718E-01   1.2712E+00  0.000E+00  0.000E+00  0.000E+00  1.06987E+03  1.555E+00  8.218E+00  5.547E-02  1.777E+00
   1    4    8     3     4    1.2712E+00  2.2567E-01   1.0456E+00  0.000E+00  0.000E+00  0.000E+00  1.06682E+03  1.364E+00  7.455E+00  6.709E-02  1.682E+00
   1    5    8     3     5    1.0456E+00  1.5790E-01   8.8768E-01  0.000E+00  0.000E+00  0.000E+00  1.06362E+03  1.164E+00  6.655E+00  4.991E-02  1.582E+00
   1    6    8     3     6    8.8768E-01  5.5980E-02   8.3170E-01  0.000E+00  0.000E+00  0.000E+00  1.06158E+03  1.036E+00  6.145E+00  1.844E-02  1.518E+00
   1    5   10     4     1    1.0000E+01  9.0919E-02   9.9091E+00  0.000E+00  0.000E+00  0.000E+00  1.07836E+03  6.368E-01  1.000E+01  2.500E-02  1.212E+00
   1    5    9     4     2    9.9091E+00  1.8158E-01   9.7275E+00  0.000E+00  0.000E+00  0.000E+00  1.07154E+03  6.315E-01  1.000E+01  5.000E-02  1.211E+00
   1    6    8     4     3    9.7275E+00  1.2689E-01   9.6006E+00  0.000E+00  0.000E+00  0.000E+00  1.06381E+03  6.256E-01  1.000E+01  3.500E-02  1.209E+00
   1    6    8     5     1    1.0432E+01  2.2686E-01   1.0205E+01  0.000E+00  0.000E+00  0.000E+00  1.05868E+03  6.790E-01  1.542E+01  6.166E-02  1.226E+00
   1    7    7     5     2    1.0205E+01  2.7894E-01   9.9265E+00  0.000E+00  0.000E+00  0.000E+00  1.05417E+03  6.732E-01  1.519E+01  7.594E-02  1.224E+00
   1    8    7     5     3    9.9265E+00  1.9221E-01   9.7343E+00  0.000E+00  0.000E+00  0.000E+00  1.04992E+03  6.676E-01  1.497E+01  5.241E-02  1.223E+00
   1    8    6     5     4    9.7343E+00  1.3577E-01   9.5985E+00  0.000E+00  0.000E+00  0.000E+00  1.04691E+03  6.637E-01  1.482E+01  3.706E-02  1.221E+00
   1    9    6     6     1    2.9504E+01  2.6070E-01   2.9244E+01  0.000E+00  0.000E+00  0.000E+00  1.04407E+03  1.345E+00  1.200E+01  6.000E-02  1.448E+00
   1   10    7     6     2    2.9244E+01  2.6027E-01   2.8983E+01  0.000E+00  0.000E+00  0.000E+00  1.03952E+03  1.338E+00  1.200E+01  6.000E-02  1.446E+00
   1   11    7     6     3    2.8983E+01  2.5984E-01   2.8723E+01  0.000E+00  0.000E+00  0.000E+00  1.03497E+03  1.331E+00  1.200E+01  6.000E-02  1.444E+00
   1   12    7     6     4    2.8723E+01  2.5941E-01   2.8464E+01  0.000E+00  0.000E+00  0.000E+00  1.03041E+03  1.324E+00  1.200E+01  6.000E-02  1.441E+00
   1   13    7     6     5    2.8464E+01  4.4582E-03   2.8460E+01  0.000E+00  0.000E+00  0.000E+00  1.02723E+03  1.320E+00  1.200E+01  2.400E-02  6.192E-02
   1   14    9     7     1    1.5000E+02  1.3345E+00   1.4867E+02  0.000E+00  0.000E+00  0.000E+00  1.03987E+03  2.288E+00  5.529E+01  5.593E-01  7.954E-01
   1   13    8     7     2    1.4867E+02  1.8391E+00   1.4683E+02  0.000E+00  0.000E+00  0.000E+00  1.03478E+03  2.279E+00  5.526E+01  6.148E-01  9.972E-01
   1   13    7     7     3    1.4683E+02  1.4780E+00   1.4535E+02  0.000E+00  0.000E+00  0.000E+00  1.02969E+03  2.270E+00  5.522E+01  5.584E-01  8.822E-01
   1   13    6     8     1    1.7381E+02  9.4346E-01   1.7286E+02  0.000E+00  0.000E+00  0.000E+00  1.02485E+03  2.974E+00  4.312E+01  4.394E-01  7.157E-01
   1   13    5     8     2    1.7286E+02  1.9332E-01   1.7267E+02  0.000E+00  0.000E+00  0.000E+00  1.01860E+03  2.970E+00  4.307E+01  4.389E-01  1.468E-01
   1   13    4     8     3    1.7267E+02 -2.3856E+00   1.7506E+02  0.000E+00  0.000E+00  0.000E+00  1.01235E+03  2.977E+00  4.317E+01  4.399E+00 -1.808E-01
   1   13    3     8     4    1.7506E+02 -3.6510E+00   1.7871E+02  0.000E+00  0.000E+00  0.000E+00  1.00612E+03  2.996E+00  4.345E+01  4.428E+00 -2.749E-01
   1   13    2     8     5    1.7871E+02 -2.6113E+00   1.8132E+02  0.000E+00  0.000E+00  0.000E+00  9.99891E+02  3.016E+00  4.374E+01  4.457E+00 -1.953E-01
   1   13    1     8     6    1.8132E+02 -2.0291E+00   1.8335E+02  0.000E+00  0.000E+00  0.000E+00  9.94906E+02  3.031E+00  4.395E+01  2.687E+00 -2.517E-01





UNSATURATED ZONE PACKAGE VOLUMETRIC BUDGET FOR  TIME STEP    30 STRESS PERIOD   22
  ------------------------------------------------------------------------------



     CUMULATIVE VOLUMES      L**3       RATES FOR THIS TIME STEP      L**3/T
     ------------------                 ------------------------

           IN:                                      IN:
           ---                                      ---
        INFILTRATION =  1184233470.7429          INFILTRATION =          15.3575

          OUT:                                     OUT:
          ----                                     ----
              UZF ET =   986149963.5758                UZF ET =          15.3575
        UZF RECHARGE =   123439214.8769          UZF RECHARGE =          23.6309

            IN - OUT =    74644292.2902              IN - OUT =         -23.6309

          STORAGE:                                 STORAGE:
          --------                                 --------
      STORAGE CHANGE =    74645796.5569        STORAGE CHANGE =         -23.6309

 PERCENT DISCREPANCY IS DIFFERENCE BETWEEN IN-OUT MINUS CHANGE IN STORAGE
 DIVIDED BY THE AVERAGE OF IN AND OUT TIMES 100

 PERCENT DISCREPANCY =          -0.00     PERCENT DISCREPANCY =           0.00






1
  VOLUMETRIC BUDGET FOR AGRICULTURAL FIELDS AT TIME STEP   30, STRESS PERIOD  22
  ------------------------------------------------------------------------------

     CUMULATIVE VOLUMES      L**3       RATES FOR THIS TIME STEP      L**3/T
     ------------------                 ------------------------

           IN:                                      IN:
           ---                                      ---
               AG WELLS  =   940732288.0000                 AG WELLS  =          10.9500
      DIVERSION SEGMENTS =           0.0000        DIVERSION SEGMENTS =           0.0000
           GW IRRIGATION =           0.0000             GW IRRIGATION =           0.0000
           SW IRRIGATION =           0.0000             SW IRRIGATION =           0.0000
        SYSTEM LOSSES GW =           0.0000          SYSTEM LOSSES GW =           0.0000
        SYSTEM LOSSES SW =           0.0000          SYSTEM LOSSES SW =           0.0000

                TOTAL IN =   940732288.0000                  TOTAL IN =          10.9500

          OUT:                                     OUT:
          ----                                     ----
               AG WELLS  =           0.0000                 AG WELLS  =           0.0000
      DIVERSION SEGMENTS =           0.0000        DIVERSION SEGMENTS =           0.0000
           GW IRRIGATION =   940732288.0000             GW IRRIGATION =          10.9500
           SW IRRIGATION =           0.0000             SW IRRIGATION =           0.0000
        SYSTEM LOSSES GW =           0.0000          SYSTEM LOSSES GW =           0.0000
        SYSTEM LOSSES SW =           0.0000          SYSTEM LOSSES SW =           0.0000

               TOTAL OUT =   940732288.0000                 TOTAL OUT =          10.9500

                IN - OUT =           0.0000                  IN - OUT =           0.0000

     PERCENT DISCREPANCY =           0.00         PERCENT DISCREPANCY =           0.00



1
  VOLUMETRIC BUDGET FOR ENTIRE MODEL AT END OF TIME STEP   30, STRESS PERIOD  22
  ------------------------------------------------------------------------------

     CUMULATIVE VOLUMES      L**3       RATES FOR THIS TIME STEP      L**3/T
     ------------------                 ------------------------

           IN:                                      IN:
           ---                                      ---
             STORAGE     =  1119022592.0000               STORAGE     =          18.3707
       CONSTANT HEAD     =           0.0000         CONSTANT HEAD     =           0.0000
     HEAD DEP BOUNDS     =    15789451.0000       HEAD DEP BOUNDS     =           0.2857
      STREAM LEAKAGE     =   692856896.0000        STREAM LEAKAGE     =          11.7602
        UZF RECHARGE     =   123439224.0000          UZF RECHARGE     =          23.6309
               GW ET     =           0.0000                 GW ET     =           0.0000
     SURFACE LEAKAGE     =           0.0000       SURFACE LEAKAGE     =           0.0000
           AG WELLS      =           0.0000             AG WELLS      =           0.0000

                TOTAL IN =  1951108224.0000                  TOTAL IN =          54.0474

          OUT:                                     OUT:
          ----                                     ----
             STORAGE     =   403171904.0000               STORAGE     =          32.1294
       CONSTANT HEAD     =           0.0000         CONSTANT HEAD     =           0.0000
     HEAD DEP BOUNDS     =    16297156.0000       HEAD DEP BOUNDS     =           0.2911
      STREAM LEAKAGE     =   573609024.0000        STREAM LEAKAGE     =          10.6770
        UZF RECHARGE     =           0.0000          UZF RECHARGE     =           0.0000
               GW ET     =    17288296.0000                 GW ET     =           0.0000
     SURFACE LEAKAGE     =           0.0000       SURFACE LEAKAGE     =           0.0000
           AG WELLS      =   940732288.0000             AG WELLS      =          10.9500

               TOTAL OUT =  1951098624.0000                 TOTAL OUT =          54.0475

                IN - OUT =        9600.0000                  IN - OUT =      -1.9073E-05

     PERCENT DISCREPANCY =           0.00         PERCENT DISCREPANCY =          -0.00






         TIME SUMMARY AT END OF TIME STEP   30 IN STRESS PERIOD   22
                    SECONDS     MINUTES      HOURS       DAYS        YEARS
                    -----------------------------------------------------------
   TIME STEP LENGTH  87667.      1461.1      24.352      1.0147     2.77799E-03
 STRESS PERIOD TIME 2.63000E+06  43833.      730.56      30.440     8.33397E-02
         TOTAL TIME 5.53166E+07 9.21944E+05  15366.      640.24      1.7529    
1
1
                            STRESS PERIOD NO.   23, LENGTH =   2630000.    
                            -----------------------------------------------

                              NUMBER OF TIME STEPS =    30

                               MULTIPLIER FOR DELT =     1.000

                            INITIAL TIME STEP SIZE =   87666.66    

 REUSING NON-PARAMETER GHB CELLS FROM LAST STRESS PERIOD

      2 GHB CELLS

 REUSING STREAM SEGMENT DATA FROM LAST STRESS PERIOD



            AREAL INFILTRATION RATE
 READING ON UNIT   19 WITH FORMAT: (10F4.0)            

            1           2           3           4           5           6           7           8           9          10
 ........................................................................................................................
   1   1.2000E-09   0.000       0.000       0.000       0.000       0.000       0.000       0.000       0.000       0.000    
   2   2.1000E-09  2.0000E-09  8.0000E-10  8.5000E-09   0.000       0.000       0.000       0.000       0.000       0.000    
   3   5.0000E-10  1.1000E-09  8.8000E-09  5.5000E-09   0.000       0.000       0.000       0.000       0.000       0.000    
   4   8.5000E-09  1.1000E-09  1.1000E-09  1.1000E-09  2.0000E-09   0.000       0.000       0.000       0.000       0.000    
   5   8.5000E-09  1.1000E-09  1.1000E-09  1.1000E-09  1.1000E-09   0.000       0.000       0.000       0.000       0.000    
   6   8.5000E-09  5.2000E-09  2.1000E-09  1.1000E-09  1.5000E-09   0.000       0.000       0.000       0.000       0.000    
   7   8.5000E-09  5.2000E-09  2.1000E-09  1.2000E-09  2.0000E-09   0.000       0.000       0.000       0.000       0.000    
   8   5.0000E-10  5.2000E-09  2.1000E-09  1.2000E-09  5.0000E-09   0.000       0.000       0.000       0.000       0.000    
   9   5.0000E-10  5.2000E-09  2.1000E-09  1.2000E-09  5.0000E-09   0.000       0.000       0.000       0.000       0.000    
  10   5.0000E-10  5.2000E-09  2.1000E-09  1.2000E-09  5.8000E-09   0.000       0.000       0.000       0.000       0.000    
  11   1.0000E-10  1.1000E-09  1.1000E-09  1.2000E-09  5.0000E-09   0.000       0.000       0.000       0.000       0.000    
  12   1.1000E-09  1.1000E-09  1.1000E-09  1.1000E-09  2.0000E-09   0.000       0.000       0.000       0.000       0.000    
  13   1.1000E-09  2.2000E-09  2.2000E-09  2.1000E-09  1.0000E-09   0.000       0.000       0.000       0.000       0.000    
  14   2.0000E-10  5.5000E-09  5.5000E-09  5.2000E-09  1.0000E-09   0.000       0.000       0.000       0.000       0.000    
  15    0.000      8.8000E-09  8.8000E-09   0.000       0.000       0.000       0.000       0.000       0.000       0.000    

                  ET RATE =  5.000000E-09

 USING ET EXTINCTION DEPTH FROM PREVIOUS STRESS PERIOD. CURRENT PERIOD IS:      23

 USING EXTINCTION WATER CONTENT FROM PREVIOUS STRESS PERIOD. CURRENT PERIOD IS:      23

 USING AIR ENTRY PRESSURE FROM PREVIOUS STRESS PERIOD. CURRENT PERIOD IS:      23

 USING ROOT PRESSURE HEAD FROM PREVIOUS STRESS PERIOD. CURRENT PERIOD IS:      23

 USING ROOT ACTIVITY FROM PREVIOUS STRESS PERIOD. CURRENT PERIOD IS:      23

 PROCESSING AG STRESS PERIOD DATA

 READING AG STRESS PERIOD DATA

 READING IRRIGATION WELL

 END PROCESSING AG STRESS PERIOD DATA OPTIONS
 
 SOLVING FOR HEAD 
                                                   Max.-Head-Change                         Max.-Flux-Residual
  Residual-Control   Outer-Iter.   Inner-Iter.     Column Row Layer    Maximum-Head-Change  Column Row Layer    Maximum-Flux-Residual          L2-NORM 
          0                 1           2             4    7     1       0.1671096703E+00       4    7    1         0.8787884301E+01      0.1697286241E+02
          0                 2           2             4    7     1      -0.1624686342E-01       4    7    1        -0.8783432047E+00      0.1696419205E+01
          0                 3           2             4    7     1       0.1105513229E-02       4    7    1         0.6143743017E-01      0.1186624887E+00
          0                 4           1             4    7     1      -0.4393425447E-04       4    7    1        -0.2509643578E-02      0.4847403110E-02

    ------------------------------------------------
       NWT REQUIRED            4 OUTER ITERATIONS 
       AND A TOTAL OF          7 INNER ITERATIONS.
    ------------------------------------------------

 NO OUTPUT CONTROL FOR STRESS PERIOD   23   TIME STEP    1
 
 SOLVING FOR HEAD 
                                                   Max.-Head-Change                         Max.-Flux-Residual
  Residual-Control   Outer-Iter.   Inner-Iter.     Column Row Layer    Maximum-Head-Change  Column Row Layer    Maximum-Flux-Residual          L2-NORM 
          0                 1           2             4    7     1       0.1650569333E+00       4    7    1         0.8682574889E+01      0.1667198554E+02
          0                 2           2             4    6     1      -0.1392464571E-01       4    6    1        -0.7699734413E+00      0.1313392463E+01
          0                 3           2             4    8     1      -0.2156959614E-02       4    8    1        -0.1203909023E+00      0.1491263819E+00
          0                 4           2             4    8     1      -0.6229986036E-03       4    8    1        -0.3470261919E-01      0.3505678857E-01
          0                 5           2             4    8     1      -0.1799781929E-03       4    8    1        -0.1002529903E-01      0.1009271617E-01
          0                 6           1             4    8     1      -0.5200434680E-04       4    8    1        -0.2896222079E-02      0.2920832383E-02

    ------------------------------------------------
       NWT REQUIRED            6 OUTER ITERATIONS 
       AND A TOTAL OF         11 INNER ITERATIONS.
    ------------------------------------------------

 NO OUTPUT CONTROL FOR STRESS PERIOD   23   TIME STEP    2
 
 SOLVING FOR HEAD 
                                                   Max.-Head-Change                         Max.-Flux-Residual
  Residual-Control   Outer-Iter.   Inner-Iter.     Column Row Layer    Maximum-Head-Change  Column Row Layer    Maximum-Flux-Residual          L2-NORM 
          0                 1           2             4    7     1       0.1623045332E+00       4    7    1         0.8538417717E+01      0.1637809610E+02
          0                 2           2             4    7     1       0.4456532070E-01       4    7    1         0.2391309321E+01      0.3718229736E+01
          0                 3           2             4    8     1       0.9397013362E-02       4    8    1         0.5065945904E+00      0.7817038508E+00
          0                 4           2             4    8     1       0.2523751424E-02       4    8    1         0.1371973132E+00      0.2020418577E+00
          0                 5           2             4    8     1       0.6778005723E-03       4    8    1         0.3674372382E-01      0.5368259859E-01
          0                 6           2             4    8     1       0.1820358369E-03       4    8    1         0.9874415016E-02      0.1439699313E-01
          0                 7           1             4    8     1       0.4888898879E-04       4    8    1         0.2651702732E-02      0.3860673489E-02

    ------------------------------------------------
       NWT REQUIRED            7 OUTER ITERATIONS 
       AND A TOTAL OF         13 INNER ITERATIONS.
    ------------------------------------------------

 NO OUTPUT CONTROL FOR STRESS PERIOD   23   TIME STEP    3
 
 SOLVING FOR HEAD 
                                                   Max.-Head-Change                         Max.-Flux-Residual
  Residual-Control   Outer-Iter.   Inner-Iter.     Column Row Layer    Maximum-Head-Change  Column Row Layer    Maximum-Flux-Residual          L2-NORM 
          0                 1           2             4    7     1       0.1586605355E+00       4    7    1         0.8346978044E+01      0.1600189355E+02
          0                 2           2             4    6     1       0.3013330273E-01       4    6    1         0.1636255925E+01      0.2531465160E+01
          0                 3           2             4    6     1       0.8033774019E-02       4    6    1         0.4392149893E+00      0.4754828815E+00
          0                 4           2             4    6     1       0.2141873488E-02       4    6    1         0.1167011050E+00      0.1173437738E+00
          0                 5           2             4    6     1       0.5710424024E-03       4    6    1         0.3114421569E-01      0.3114765140E-01
          0                 6           2             4    6     1       0.1522449471E-03       4    6    1         0.8301557839E-02      0.8301849323E-02
          0                 7           1             4    6     1       0.4058985042E-04       4    6    1         0.2213335236E-02      0.2213397307E-02

    ------------------------------------------------
       NWT REQUIRED            7 OUTER ITERATIONS 
       AND A TOTAL OF         13 INNER ITERATIONS.
    ------------------------------------------------

 NO OUTPUT CONTROL FOR STRESS PERIOD   23   TIME STEP    4
 
 SOLVING FOR HEAD 
                                                   Max.-Head-Change                         Max.-Flux-Residual
  Residual-Control   Outer-Iter.   Inner-Iter.     Column Row Layer    Maximum-Head-Change  Column Row Layer    Maximum-Flux-Residual          L2-NORM 
          0                 1           2             4    7     1       0.1581044470E+00       4    7    1         0.8325782743E+01      0.1567757358E+02
          0                 2           2             4    7     1      -0.1503084546E-01       4    7    1        -0.8321591552E+00      0.1525888998E+01
          0                 3           2             4    6     1      -0.1085068251E-02       4    6    1        -0.6238953328E-01      0.1157348386E+00
          0                 4           1             4    6     1       0.7383672865E-04       4    6    1         0.4320225359E-02      0.5894555404E-02

    ------------------------------------------------
       NWT REQUIRED            4 OUTER ITERATIONS 
       AND A TOTAL OF          7 INNER ITERATIONS.
    ------------------------------------------------

 NO OUTPUT CONTROL FOR STRESS PERIOD   23   TIME STEP    5
 
 SOLVING FOR HEAD 
                                                   Max.-Head-Change                         Max.-Flux-Residual
  Residual-Control   Outer-Iter.   Inner-Iter.     Column Row Layer    Maximum-Head-Change  Column Row Layer    Maximum-Flux-Residual          L2-NORM 
          0                 1           2             4    7     1       0.1562873115E+00       4    7    1         0.8232906146E+01      0.1541941032E+02
          0                 2           2             4    7     1      -0.1519473928E-01       4    7    1        -0.8228768517E+00      0.1541165968E+01
          0                 3           2             4    7     1       0.1033922715E-02       4    7    1         0.5755777803E-01      0.1078035360E+00
          0                 4           1             4    7     1      -0.4108926553E-04       4    7    1        -0.2351169735E-02      0.4403877276E-02

    ------------------------------------------------
       NWT REQUIRED            4 OUTER ITERATIONS 
       AND A TOTAL OF          7 INNER ITERATIONS.
    ------------------------------------------------

 NO OUTPUT CONTROL FOR STRESS PERIOD   23   TIME STEP    6
 
 SOLVING FOR HEAD 
                                                   Max.-Head-Change                         Max.-Flux-Residual
  Residual-Control   Outer-Iter.   Inner-Iter.     Column Row Layer    Maximum-Head-Change  Column Row Layer    Maximum-Flux-Residual          L2-NORM 
          0                 1           2             4    7     1       0.1541289960E+00       4    7    1         0.8120305102E+01      0.1518176937E+02
          0                 2           2             4    7     1       0.2533105044E-01       4    7    1         0.1405914166E+01      0.1902738142E+01
          0                 3           2             4    7     1       0.6770921228E-02       4    7    1         0.3666740239E+00      0.3776883160E+00
          0                 4           1             4    7     1       0.1809847162E-02       4    7    1         0.9858729302E-01      0.9864106655E-01
          0                 5           1             4    7     1       0.4837664052E-03       4    7    1         0.2632870054E-01      0.2632981976E-01
          0                 6           1             4    7     1       0.1293092478E-03       4    7    1         0.7037769589E-02      0.7038042573E-02
          0                 7           1             4    7     1       0.3456395770E-04       4    7    1         0.1881156610E-02      0.1881234067E-02

    ------------------------------------------------
       NWT REQUIRED            7 OUTER ITERATIONS 
       AND A TOTAL OF         10 INNER ITERATIONS.
    ------------------------------------------------

 NO OUTPUT CONTROL FOR STRESS PERIOD   23   TIME STEP    7
 
 SOLVING FOR HEAD 
                                                   Max.-Head-Change                         Max.-Flux-Residual
  Residual-Control   Outer-Iter.   Inner-Iter.     Column Row Layer    Maximum-Head-Change  Column Row Layer    Maximum-Flux-Residual          L2-NORM 
          0                 1           2             4    7     1       0.1485458558E+00       4    7    1         0.7875753039E+01      0.1377550698E+02
          0                 2           2             4    7     1       0.1552447949E-01       4    7    1         0.8677562802E+00      0.1424424273E+01
          0                 3           2             4    7     1      -0.1509328468E-02       4    7    1        -0.8610959152E-01      0.1171890800E+00
          0                 4           1             4    7     1       0.1027062673E-03       4    7    1         0.5981228111E-02      0.6828059317E-02
          0                 5           1             4    7     1      -0.4081884300E-05       4    7    1        -0.2426697201E-03      0.2468126002E-03

    ------------------------------------------------
       NWT REQUIRED            5 OUTER ITERATIONS 
       AND A TOTAL OF          8 INNER ITERATIONS.
    ------------------------------------------------

 NO OUTPUT CONTROL FOR STRESS PERIOD   23   TIME STEP    8
 
 SOLVING FOR HEAD 
                                                   Max.-Head-Change                         Max.-Flux-Residual
  Residual-Control   Outer-Iter.   Inner-Iter.     Column Row Layer    Maximum-Head-Change  Column Row Layer    Maximum-Flux-Residual          L2-NORM 
          0                 1           2             4    7     1       0.1427162461E+00       4    7    1         0.7640690121E+01      0.1224345127E+02
          0                 2           2             4    7     1      -0.1354339596E-01       4    7    1        -0.7637111973E+00      0.1095892590E+01
          0                 3           2             4    6     1       0.3027557230E-02       4    6    1         0.1649612356E+00      0.1818382640E+00
          0                 4           2             4    6     1       0.8028432366E-03       4    6    1         0.4400241316E-01      0.4560909831E-01
          0                 5           2             4    6     1       0.2129183196E-03       4    6    1         0.1165860743E-01      0.1205405888E-01
          0                 6           1             4    6     1       0.5647325790E-04       4    6    1         0.3092063566E-02      0.3192544838E-02

    ------------------------------------------------
       NWT REQUIRED            6 OUTER ITERATIONS 
       AND A TOTAL OF         11 INNER ITERATIONS.
    ------------------------------------------------

 NO OUTPUT CONTROL FOR STRESS PERIOD   23   TIME STEP    9
 
 SOLVING FOR HEAD 
                                                   Max.-Head-Change                         Max.-Flux-Residual
  Residual-Control   Outer-Iter.   Inner-Iter.     Column Row Layer    Maximum-Head-Change  Column Row Layer    Maximum-Flux-Residual          L2-NORM 
          0                 1           2             4    7     1       0.1389968875E+00       4    7    1         0.7437050252E+01      0.1184488646E+02
          0                 2           2             4    6     1       0.3296902558E-01       4    6    1         0.1817933144E+01      0.2068414428E+01
          0                 3           2             4    6     1       0.5314612870E-02       4    6    1         0.2884480465E+00      0.2968447459E+00
          0                 4           2             4    6     1      -0.5166962994E-03       4    6    1        -0.2892518136E-01      0.2903592356E-01
          0                 5           1             4    6     1       0.3515948413E-04       4    6    1         0.2027072517E-02      0.2027295593E-02

    ------------------------------------------------
       NWT REQUIRED            5 OUTER ITERATIONS 
       AND A TOTAL OF          9 INNER ITERATIONS.
    ------------------------------------------------

 NO OUTPUT CONTROL FOR STRESS PERIOD   23   TIME STEP   10
 
 SOLVING FOR HEAD 
                                                   Max.-Head-Change                         Max.-Flux-Residual
  Residual-Control   Outer-Iter.   Inner-Iter.     Column Row Layer    Maximum-Head-Change  Column Row Layer    Maximum-Flux-Residual          L2-NORM 
          0                 1           2             4    7     1       0.1357324212E+00       4    7    1         0.7261411946E+01      0.1056773239E+02
          0                 2           2             4    7     1      -0.1319667688E-01       4    7    1        -0.7257992258E+00      0.1056285416E+01
          0                 3           2             4    7     1       0.8979727186E-03       4    7    1         0.5076791376E-01      0.7388950728E-01
          0                 4           1             4    7     1      -0.3568713602E-04       4    7    1        -0.2073852111E-02      0.3018676258E-02

    ------------------------------------------------
       NWT REQUIRED            4 OUTER ITERATIONS 
       AND A TOTAL OF          7 INNER ITERATIONS.
    ------------------------------------------------

 NO OUTPUT CONTROL FOR STRESS PERIOD   23   TIME STEP   11
 
 SOLVING FOR HEAD 
                                                   Max.-Head-Change                         Max.-Flux-Residual
  Residual-Control   Outer-Iter.   Inner-Iter.     Column Row Layer    Maximum-Head-Change  Column Row Layer    Maximum-Flux-Residual          L2-NORM 
          0                 1           2             4    7     1       0.1318905326E+00       4    7    1         0.7052332746E+01      0.1032576996E+02
          0                 2           2             4    7     1      -0.1282312291E-01       4    7    1        -0.7048995413E+00      0.1032099968E+01
          0                 3           2             4    7     1       0.8725540090E-03       4    7    1         0.4930602602E-01      0.7219778518E-01
          0                 4           1             4    7     1      -0.3467692759E-04       4    7    1        -0.2014133179E-02      0.2949567106E-02

    ------------------------------------------------
       NWT REQUIRED            4 OUTER ITERATIONS 
       AND A TOTAL OF          7 INNER ITERATIONS.
    ------------------------------------------------

 NO OUTPUT CONTROL FOR STRESS PERIOD   23   TIME STEP   12
 
 SOLVING FOR HEAD 
                                                   Max.-Head-Change                         Max.-Flux-Residual
  Residual-Control   Outer-Iter.   Inner-Iter.     Column Row Layer    Maximum-Head-Change  Column Row Layer    Maximum-Flux-Residual          L2-NORM 
          0                 1           2             4    6     1       0.1101462378E+00       4    6    1         0.5943825229E+01      0.7762305202E+01
          0                 2           2             4    6     1      -0.1070894744E-01       4    6    1        -0.5940939785E+00      0.7758943715E+00
          0                 3           2             4    6     1       0.7287020258E-03       4    6    1         0.4155582042E-01      0.5427841845E-01
          0                 4           1             4    6     1      -0.2896041672E-04       4    6    1        -0.1697558761E-02      0.2217677744E-02

    ------------------------------------------------
       NWT REQUIRED            4 OUTER ITERATIONS 
       AND A TOTAL OF          7 INNER ITERATIONS.
    ------------------------------------------------

 NO OUTPUT CONTROL FOR STRESS PERIOD   23   TIME STEP   13
 
 SOLVING FOR HEAD 
                                                   Max.-Head-Change                         Max.-Flux-Residual
  Residual-Control   Outer-Iter.   Inner-Iter.     Column Row Layer    Maximum-Head-Change  Column Row Layer    Maximum-Flux-Residual          L2-NORM 
          0                 1           2             4    6     1       0.1061404467E+00       4    6    1         0.5722998266E+01      0.7581521260E+01
          0                 2           2             4    6     1      -0.1031947084E-01       4    6    1        -0.5720210005E+00      0.7578242960E+00
          0                 3           2             4    6     1       0.7021994719E-03       4    6    1         0.4001183794E-01      0.5301445859E-01
          0                 4           1             4    6     1      -0.2790712098E-04       4    6    1        -0.1634485299E-02      0.2166045772E-02

    ------------------------------------------------
       NWT REQUIRED            4 OUTER ITERATIONS 
       AND A TOTAL OF          7 INNER ITERATIONS.
    ------------------------------------------------

 NO OUTPUT CONTROL FOR STRESS PERIOD   23   TIME STEP   14
 
 SOLVING FOR HEAD 
                                                   Max.-Head-Change                         Max.-Flux-Residual
  Residual-Control   Outer-Iter.   Inner-Iter.     Column Row Layer    Maximum-Head-Change  Column Row Layer    Maximum-Flux-Residual          L2-NORM 
          0                 1           2             4    6     1       0.1023623344E+00       4    6    1         0.5514865687E+01      0.7413307163E+01
          0                 2           2             4    7     1      -0.4274373987E-02       4    7    1        -0.2332129759E+00      0.4997059703E+00
          0                 3           2             4    6     1      -0.3757973738E-03       4    6    1        -0.2154899964E-01      0.4080409170E-01
          0                 4           2             4    6     1      -0.1076949697E-03       4    6    1        -0.6018677021E-02      0.6184909950E-02
          0                 5           1             4    6     1      -0.3086230623E-04       4    6    1        -0.1730491103E-02      0.1730559096E-02

    ------------------------------------------------
       NWT REQUIRED            5 OUTER ITERATIONS 
       AND A TOTAL OF          9 INNER ITERATIONS.
    ------------------------------------------------

 NO OUTPUT CONTROL FOR STRESS PERIOD   23   TIME STEP   15
 
 SOLVING FOR HEAD 
                                                   Max.-Head-Change                         Max.-Flux-Residual
  Residual-Control   Outer-Iter.   Inner-Iter.     Column Row Layer    Maximum-Head-Change  Column Row Layer    Maximum-Flux-Residual          L2-NORM 
          0                 1           2             4    6     1       0.9019809593E-01       4    6    1         0.4849292603E+01      0.6924063964E+01
          0                 2           2             4    6     1      -0.8769424744E-02       4    6    1        -0.4846890676E+00      0.6921116309E+00
          0                 3           2             4    6     1       0.5967244738E-03       4    6    1         0.3390308421E-01      0.4841825909E-01
          0                 4           1             4    6     1      -0.2371523030E-04       4    6    1        -0.1384937369E-02      0.1978299706E-02

    ------------------------------------------------
       NWT REQUIRED            4 OUTER ITERATIONS 
       AND A TOTAL OF          7 INNER ITERATIONS.
    ------------------------------------------------

 NO OUTPUT CONTROL FOR STRESS PERIOD   23   TIME STEP   16
 
 SOLVING FOR HEAD 
                                                   Max.-Head-Change                         Max.-Flux-Residual
  Residual-Control   Outer-Iter.   Inner-Iter.     Column Row Layer    Maximum-Head-Change  Column Row Layer    Maximum-Flux-Residual          L2-NORM 
          0                 1           2             4    7     1       0.4444782749E-01       4    7    1         0.2361556211E+01      0.4951381848E+01
          0                 2           2             4    7     1      -0.4321291689E-02       4    7    1        -0.2360322836E+00      0.4949660409E+00
          0                 3           2             4    7     1       0.2940441185E-03       4    7    1         0.1650991342E-01      0.3463083166E-01
          0                 4           1             4    7     1      -0.1168577207E-04       4    7    1        -0.6744181185E-03      0.1415267365E-02

    ------------------------------------------------
       NWT REQUIRED            4 OUTER ITERATIONS 
       AND A TOTAL OF          7 INNER ITERATIONS.
    ------------------------------------------------

 NO OUTPUT CONTROL FOR STRESS PERIOD   23   TIME STEP   17
 
 SOLVING FOR HEAD 
                                                   Max.-Head-Change                         Max.-Flux-Residual
  Residual-Control   Outer-Iter.   Inner-Iter.     Column Row Layer    Maximum-Head-Change  Column Row Layer    Maximum-Flux-Residual          L2-NORM 
          0                 1           2             4    7     1       0.4349615402E-01       4    7    1         0.2309415273E+01      0.4876184223E+01
          0                 2           2             4    7     1      -0.4228765801E-02       4    7    1        -0.2308207435E+00      0.4874481834E+00
          0                 3           2             4    7     1       0.2877480357E-03       4    7    1         0.1614537078E-01      0.3410477731E-01
          0                 4           1             4    7     1      -0.1143554741E-04       4    7    1        -0.6595262735E-03      0.1393769847E-02

    ------------------------------------------------
       NWT REQUIRED            4 OUTER ITERATIONS 
       AND A TOTAL OF          7 INNER ITERATIONS.
    ------------------------------------------------

 NO OUTPUT CONTROL FOR STRESS PERIOD   23   TIME STEP   18
 
 SOLVING FOR HEAD 
                                                   Max.-Head-Change                         Max.-Flux-Residual
  Residual-Control   Outer-Iter.   Inner-Iter.     Column Row Layer    Maximum-Head-Change  Column Row Layer    Maximum-Flux-Residual          L2-NORM 
          0                 1           2             4    7     1       0.4259259728E-01       4    7    1         0.2259970173E+01      0.4804372354E+01
          0                 2           2             4    7     1      -0.4140918106E-02       4    7    1        -0.2258786594E+00      0.4802688014E+00
          0                 3           2             4    7     1       0.2817702931E-03       4    7    1         0.1579967667E-01      0.3360237246E-01
          0                 4           1             4    7     1      -0.1119797447E-04       4    7    1        -0.6454043908E-03      0.1377891955E-02

    ------------------------------------------------
       NWT REQUIRED            4 OUTER ITERATIONS 
       AND A TOTAL OF          7 INNER ITERATIONS.
    ------------------------------------------------

 NO OUTPUT CONTROL FOR STRESS PERIOD   23   TIME STEP   19
 
 SOLVING FOR HEAD 
                                                   Max.-Head-Change                         Max.-Flux-Residual
  Residual-Control   Outer-Iter.   Inner-Iter.     Column Row Layer    Maximum-Head-Change  Column Row Layer    Maximum-Flux-Residual          L2-NORM 
          0                 1           2             4    7     1       0.4173372888E-01       4    7    1         0.2213027148E+01      0.4735637725E+01
          0                 2           2             4    7     1      -0.4057415276E-02       4    7    1        -0.2211866644E+00      0.4733970851E+00
          0                 3           2             4    7     1       0.2760882091E-03       4    7    1         0.1547147630E-01      0.3312151956E-01
          0                 4           1             4    7     1      -0.1097215249E-04       4    7    1        -0.6319971778E-03      0.1353562760E-02

    ------------------------------------------------
       NWT REQUIRED            4 OUTER ITERATIONS 
       AND A TOTAL OF          7 INNER ITERATIONS.
    ------------------------------------------------

 NO OUTPUT CONTROL FOR STRESS PERIOD   23   TIME STEP   20
 
 SOLVING FOR HEAD 
                                                   Max.-Head-Change                         Max.-Flux-Residual
  Residual-Control   Outer-Iter.   Inner-Iter.     Column Row Layer    Maximum-Head-Change  Column Row Layer    Maximum-Flux-Residual          L2-NORM 
          0                 1           2             4    7     1       0.4091613407E-01       4    7    1         0.2168393841E+01      0.4669722395E+01
          0                 2           2             4    7     1      -0.3977925309E-02       4    7    1        -0.2167255319E+00      0.4668072740E+00
          0                 3           2             4    7     1       0.2706791912E-03       4    7    1         0.1515942481E-01      0.3266041735E-01
          0                 4           1             4    7     1      -0.1075718289E-04       4    7    1        -0.6192496689E-03      0.1334727258E-02

    ------------------------------------------------
       NWT REQUIRED            4 OUTER ITERATIONS 
       AND A TOTAL OF          7 INNER ITERATIONS.
    ------------------------------------------------

 NO OUTPUT CONTROL FOR STRESS PERIOD   23   TIME STEP   21
 
 SOLVING FOR HEAD 
                                                   Max.-Head-Change                         Max.-Flux-Residual
  Residual-Control   Outer-Iter.   Inner-Iter.     Column Row Layer    Maximum-Head-Change  Column Row Layer    Maximum-Flux-Residual          L2-NORM 
          0                 1           2             4    7     1       0.4013719542E-01       4    7    1         0.2125922405E+01      0.4606373870E+01
          0                 2           2             4    7     1      -0.3902193725E-02       4    7    1        -0.2124804844E+00      0.4604740848E+00
          0                 3           2             4    7     1       0.2655259224E-03       4    7    1         0.1486248845E-01      0.3221724336E-01
          0                 4           1             4    7     1      -0.1055237837E-04       4    7    1        -0.6071196533E-03      0.1334732251E-02

    ------------------------------------------------
       NWT REQUIRED            4 OUTER ITERATIONS 
       AND A TOTAL OF          7 INNER ITERATIONS.
    ------------------------------------------------

 NO OUTPUT CONTROL FOR STRESS PERIOD   23   TIME STEP   22
 
 SOLVING FOR HEAD 
                                                   Max.-Head-Change                         Max.-Flux-Residual
  Residual-Control   Outer-Iter.   Inner-Iter.     Column Row Layer    Maximum-Head-Change  Column Row Layer    Maximum-Flux-Residual          L2-NORM 
          0                 1           2             4    7     1       0.3939385668E-01       4    7    1         0.2085440625E+01      0.4545385575E+01
          0                 2           2             4    7     1      -0.3829923378E-02       4    7    1        -0.2084343084E+00      0.4543768938E+00
          0                 3           2             4    7     1       0.2606081830E-03       4    7    1         0.1457946321E-01      0.3179060275E-01
          0                 4           1             4    7     1      -0.1035693396E-04       4    7    1        -0.5955579113E-03      0.1299151168E-02

    ------------------------------------------------
       NWT REQUIRED            4 OUTER ITERATIONS 
       AND A TOTAL OF          7 INNER ITERATIONS.
    ------------------------------------------------

 NO OUTPUT CONTROL FOR STRESS PERIOD   23   TIME STEP   23
 
 SOLVING FOR HEAD 
                                                   Max.-Head-Change                         Max.-Flux-Residual
  Residual-Control   Outer-Iter.   Inner-Iter.     Column Row Layer    Maximum-Head-Change  Column Row Layer    Maximum-Flux-Residual          L2-NORM 
          0                 1           2             4    7     1       0.3868396379E-01       4    7    1         0.2046826549E+01      0.4486575739E+01
          0                 2           2             4    7     1      -0.3760904835E-02       4    7    1        -0.2045748146E+00      0.4484975224E+00
          0                 3           2             4    7     1       0.2559117206E-03       4    7    1         0.1430949635E-01      0.3137922002E-01
          0                 4           1             4    7     1      -0.1017028426E-04       4    7    1        -0.5845296325E-03      0.1282373439E-02

    ------------------------------------------------
       NWT REQUIRED            4 OUTER ITERATIONS 
       AND A TOTAL OF          7 INNER ITERATIONS.
    ------------------------------------------------

 NO OUTPUT CONTROL FOR STRESS PERIOD   23   TIME STEP   24
 
 SOLVING FOR HEAD 
                                                   Max.-Head-Change                         Max.-Flux-Residual
  Residual-Control   Outer-Iter.   Inner-Iter.     Column Row Layer    Maximum-Head-Change  Column Row Layer    Maximum-Flux-Residual          L2-NORM 
          0                 1           2             4    7     1       0.3800500827E-01       4    7    1         0.2009939284E+01      0.4429766125E+01
          0                 2           2             4    7     1      -0.3694894210E-02       4    7    1        -0.2008879201E+00      0.4428145078E+00
          0                 3           2             4    7     1       0.2514199415E-03       4    7    1         0.1405160282E-01      0.3098312134E-01
          0                 4           1             4    7     1      -0.9991769474E-05       4    7    1        -0.5739945743E-03      0.1266168157E-02

    ------------------------------------------------
       NWT REQUIRED            4 OUTER ITERATIONS 
       AND A TOTAL OF          7 INNER ITERATIONS.
    ------------------------------------------------

 NO OUTPUT CONTROL FOR STRESS PERIOD   23   TIME STEP   25
 
 SOLVING FOR HEAD 
                                                   Max.-Head-Change                         Max.-Flux-Residual
  Residual-Control   Outer-Iter.   Inner-Iter.     Column Row Layer    Maximum-Head-Change  Column Row Layer    Maximum-Flux-Residual          L2-NORM 
          0                 1           2             4    7     1       0.3735507687E-01       4    7    1         0.1974670678E+01      0.4374805137E+01
          0                 2           2             4    7     1      -0.3631705419E-02       4    7    1        -0.1973628151E+00      0.4372728418E+00
          0                 3           2             4    7     1       0.2471201786E-03       4    7    1         0.1380502646E-01      0.3059377805E-01
          0                 4           1             4    7     1      -0.9820886383E-05       4    7    1        -0.5639218616E-03      0.1250248992E-02

    ------------------------------------------------
       NWT REQUIRED            4 OUTER ITERATIONS 
       AND A TOTAL OF          7 INNER ITERATIONS.
    ------------------------------------------------

 NO OUTPUT CONTROL FOR STRESS PERIOD   23   TIME STEP   26
 
 SOLVING FOR HEAD 
                                                   Max.-Head-Change                         Max.-Flux-Residual
  Residual-Control   Outer-Iter.   Inner-Iter.     Column Row Layer    Maximum-Head-Change  Column Row Layer    Maximum-Flux-Residual          L2-NORM 
          0                 1           2             4    7     1       0.3673188643E-01       4    7    1         0.1940892320E+01      0.4321602311E+01
          0                 2           2             4    7     1      -0.3571115408E-02       4    7    1        -0.1939866644E+00      0.4319136105E+00
          0                 3           2             4    7     1       0.2429972572E-03       4    7    1         0.1356886944E-01      0.3021877007E-01
          0                 4           1             4    7     1      -0.9657031371E-05       4    7    1        -0.5542747590E-03      0.1234918637E-02

    ------------------------------------------------
       NWT REQUIRED            4 OUTER ITERATIONS 
       AND A TOTAL OF          7 INNER ITERATIONS.
    ------------------------------------------------

 NO OUTPUT CONTROL FOR STRESS PERIOD   23   TIME STEP   27
 
 SOLVING FOR HEAD 
                                                   Max.-Head-Change                         Max.-Flux-Residual
  Residual-Control   Outer-Iter.   Inner-Iter.     Column Row Layer    Maximum-Head-Change  Column Row Layer    Maximum-Flux-Residual          L2-NORM 
          0                 1           2             4    7     1       0.3613385846E-01       4    7    1         0.1908515107E+01      0.4270069427E+01
          0                 2           2             4    7     1      -0.3512974294E-02       4    7    1        -0.1907505617E+00      0.4268531758E+00
          0                 3           2             4    7     1       0.2390409769E-03       4    7    1         0.1334250875E-01      0.2986470781E-01
          0                 4           1             4    7     1      -0.9499799189E-05       4    7    1        -0.5450278695E-03      0.1220447610E-02

    ------------------------------------------------
       NWT REQUIRED            4 OUTER ITERATIONS 
       AND A TOTAL OF          7 INNER ITERATIONS.
    ------------------------------------------------

 NO OUTPUT CONTROL FOR STRESS PERIOD   23   TIME STEP   28
 
 SOLVING FOR HEAD 
                                                   Max.-Head-Change                         Max.-Flux-Residual
  Residual-Control   Outer-Iter.   Inner-Iter.     Column Row Layer    Maximum-Head-Change  Column Row Layer    Maximum-Flux-Residual          L2-NORM 
          0                 1           2             4    7     1       0.3555927301E-01       4    7    1         0.1877442394E+01      0.4220040036E+01
          0                 2           2             4    7     1      -0.3457111142E-02       4    7    1        -0.1876448475E+00      0.4218517284E+00
          0                 3           2             4    7     1       0.2352397066E-03       4    7    1         0.1312526871E-01      0.2951475872E-01
          0                 4           1             4    7     1      -0.9348727946E-05       4    7    1        -0.5361535889E-03      0.1206147607E-02

    ------------------------------------------------
       NWT REQUIRED            4 OUTER ITERATIONS 
       AND A TOTAL OF          7 INNER ITERATIONS.
    ------------------------------------------------

 NO OUTPUT CONTROL FOR STRESS PERIOD   23   TIME STEP   29
 
 SOLVING FOR HEAD 
                                                   Max.-Head-Change                         Max.-Flux-Residual
  Residual-Control   Outer-Iter.   Inner-Iter.     Column Row Layer    Maximum-Head-Change  Column Row Layer    Maximum-Flux-Residual          L2-NORM 
          0                 1           2             4    7     1       0.3500668668E-01       4    7    1         0.1847592512E+01      0.4171392472E+01
          0                 2           2             4    7     1      -0.3403386872E-02       4    7    1        -0.1846613582E+00      0.4169884518E+00
          0                 3           2             4    7     1       0.2315839815E-03       4    7    1         0.1291657829E-01      0.2917445411E-01
          0                 4           1             4    7     1      -0.9203441059E-05       4    7    1        -0.5276285626E-03      0.1192229620E-02

    ------------------------------------------------
       NWT REQUIRED            4 OUTER ITERATIONS 
       AND A TOTAL OF          7 INNER ITERATIONS.
    ------------------------------------------------

 NO OUTPUT CONTROL FOR STRESS PERIOD   23   TIME STEP   30



 STREAM LISTING     PERIOD     23   STEP       30

 LAYER ROW COL. STREAM  RCH.  FLOW INTO     FLOW TO   FLOW OUT OF   OVRLND.     DIRECT     STREAM       STREAM     STREAM     STREAM   STREAMBED  STREAMBED
                SEG.NO.  NO.  STRM. RCH.    AQUIFER    STRM. RCH.    RUNOFF     PRECIP       ET          HEAD       DEPTH      WIDTH   CONDCTNC.   GRADIENT

   1    1    1     1     1    2.2000E+01  2.3088E-01   2.1769E+01  0.000E+00  0.000E+00  0.000E+00  1.09418E+03  1.132E+00  1.242E+01  5.588E-02  1.377E+00
   1    2    2     1     2    2.1769E+01  3.5689E-01   2.1413E+01  0.000E+00  0.000E+00  0.000E+00  1.08919E+03  1.127E+00  1.235E+01  8.648E-02  1.376E+00
   1    3    3     1     3    2.1413E+01  3.0372E-01   2.1109E+01  0.000E+00  0.000E+00  0.000E+00  1.08354E+03  1.121E+00  1.228E+01  7.369E-02  1.374E+00
   1    3    4     1     4    2.1109E+01  2.7914E-01   2.0830E+01  0.000E+00  0.000E+00  0.000E+00  1.07852E+03  1.117E+00  1.222E+01  6.781E-02  1.372E+00
   1    4    5     2     1    1.8830E+01  3.1306E-01   1.8517E+01  0.000E+00  0.000E+00  0.000E+00  1.07295E+03  1.014E+00  1.200E+01  7.800E-02  1.338E+00
   1    5    6     2     2    1.8517E+01  2.4027E-01   1.8276E+01  0.000E+00  0.000E+00  0.000E+00  1.06751E+03  1.005E+00  1.200E+01  6.000E-02  1.335E+00
   1    6    6     2     3    1.8276E+01  2.3980E-01   1.8037E+01  0.000E+00  0.000E+00  0.000E+00  1.06279E+03  9.967E-01  1.200E+01  6.000E-02  1.332E+00
   1    7    6     2     4    1.8037E+01  2.3933E-01   1.7797E+01  0.000E+00  0.000E+00  0.000E+00  1.05806E+03  9.888E-01  1.200E+01  6.000E-02  1.330E+00
   1    8    6     2     5    1.7797E+01  2.3885E-01   1.7558E+01  0.000E+00  0.000E+00  0.000E+00  1.05334E+03  9.808E-01  1.200E+01  6.000E-02  1.327E+00
   1    3    5     3     1    2.0000E+00  2.8252E-01   1.7175E+00  0.000E+00  0.000E+00  0.000E+00  1.07555E+03  1.909E+00  9.636E+00  7.227E-02  1.955E+00
   1    3    6     3     2    1.7175E+00  2.4905E-01   1.4684E+00  0.000E+00  0.000E+00  0.000E+00  1.07264E+03  1.727E+00  8.909E+00  6.682E-02  1.864E+00
   1    3    7     3     3    1.4684E+00  1.9718E-01   1.2712E+00  0.000E+00  0.000E+00  0.000E+00  1.06987E+03  1.555E+00  8.218E+00  5.547E-02  1.777E+00
   1    4    8     3     4    1.2712E+00  2.2567E-01   1.0456E+00  0.000E+00  0.000E+00  0.000E+00  1.06682E+03  1.364E+00  7.455E+00  6.709E-02  1.682E+00
   1    5    8     3     5    1.0456E+00  1.5790E-01   8.8768E-01  0.000E+00  0.000E+00  0.000E+00  1.06362E+03  1.164E+00  6.655E+00  4.991E-02  1.582E+00
   1    6    8     3     6    8.8768E-01  5.5980E-02   8.3170E-01  0.000E+00  0.000E+00  0.000E+00  1.06158E+03  1.036E+00  6.145E+00  1.844E-02  1.518E+00
   1    5   10     4     1    1.0000E+01  9.0919E-02   9.9091E+00  0.000E+00  0.000E+00  0.000E+00  1.07836E+03  6.368E-01  1.000E+01  2.500E-02  1.212E+00
   1    5    9     4     2    9.9091E+00  1.8158E-01   9.7275E+00  0.000E+00  0.000E+00  0.000E+00  1.07154E+03  6.315E-01  1.000E+01  5.000E-02  1.211E+00
   1    6    8     4     3    9.7275E+00  1.2689E-01   9.6006E+00  0.000E+00  0.000E+00  0.000E+00  1.06381E+03  6.256E-01  1.000E+01  3.500E-02  1.209E+00
   1    6    8     5     1    1.0432E+01  2.2686E-01   1.0205E+01  0.000E+00  0.000E+00  0.000E+00  1.05868E+03  6.790E-01  1.542E+01  6.166E-02  1.226E+00
   1    7    7     5     2    1.0205E+01  2.7894E-01   9.9265E+00  0.000E+00  0.000E+00  0.000E+00  1.05417E+03  6.732E-01  1.519E+01  7.594E-02  1.224E+00
   1    8    7     5     3    9.9265E+00  1.9221E-01   9.7343E+00  0.000E+00  0.000E+00  0.000E+00  1.04992E+03  6.676E-01  1.497E+01  5.241E-02  1.223E+00
   1    8    6     5     4    9.7343E+00  1.3577E-01   9.5985E+00  0.000E+00  0.000E+00  0.000E+00  1.04691E+03  6.637E-01  1.482E+01  3.706E-02  1.221E+00
   1    9    6     6     1    2.7157E+01  2.5677E-01   2.6900E+01  0.000E+00  0.000E+00  0.000E+00  1.04401E+03  1.280E+00  1.200E+01  6.000E-02  1.427E+00
   1   10    7     6     2    2.6900E+01  2.5634E-01   2.6644E+01  0.000E+00  0.000E+00  0.000E+00  1.03945E+03  1.272E+00  1.200E+01  6.000E-02  1.424E+00
   1   11    7     6     3    2.6644E+01  2.5590E-01   2.6388E+01  0.000E+00  0.000E+00  0.000E+00  1.03490E+03  1.265E+00  1.200E+01  6.000E-02  1.422E+00
   1   12    7     6     4    2.6388E+01  2.5546E-01   2.6132E+01  0.000E+00  0.000E+00  0.000E+00  1.03035E+03  1.258E+00  1.200E+01  6.000E-02  1.419E+00
   1   13    7     6     5    2.6132E+01  3.4858E-03   2.6129E+01  0.000E+00  0.000E+00  0.000E+00  1.02716E+03  1.254E+00  1.200E+01  2.400E-02  4.841E-02
   1   14    9     7     1    1.5000E+02  1.3355E+00   1.4866E+02  0.000E+00  0.000E+00  0.000E+00  1.03987E+03  2.288E+00  5.529E+01  5.593E-01  7.959E-01
   1   13    8     7     2    1.4866E+02  1.8445E+00   1.4682E+02  0.000E+00  0.000E+00  0.000E+00  1.03478E+03  2.279E+00  5.526E+01  6.148E-01  1.000E+00
   1   13    7     7     3    1.4682E+02  1.4921E+00   1.4533E+02  0.000E+00  0.000E+00  0.000E+00  1.02969E+03  2.270E+00  5.522E+01  5.584E-01  8.907E-01
   1   13    6     8     1    1.7146E+02  9.5198E-01   1.7050E+02  0.000E+00  0.000E+00  0.000E+00  1.02483E+03  2.959E+00  4.290E+01  4.372E-01  7.259E-01
   1   13    5     8     2    1.7050E+02  2.0779E-01   1.7030E+02  0.000E+00  0.000E+00  0.000E+00  1.01858E+03  2.955E+00  4.284E+01  4.366E-01  1.586E-01
   1   13    4     8     3    1.7030E+02 -2.3152E+00   1.7261E+02  0.000E+00  0.000E+00  0.000E+00  1.01234E+03  2.962E+00  4.294E+01  4.376E+00 -1.763E-01
   1   13    3     8     4    1.7261E+02 -3.6096E+00   1.7622E+02  0.000E+00  0.000E+00  0.000E+00  1.00611E+03  2.981E+00  4.322E+01  4.404E+00 -2.732E-01
   1   13    2     8     5    1.7622E+02 -2.5801E+00   1.7880E+02  0.000E+00  0.000E+00  0.000E+00  9.99875E+02  3.000E+00  4.351E+01  4.433E+00 -1.940E-01
   1   13    1     8     6    1.7880E+02 -1.9990E+00   1.8080E+02  0.000E+00  0.000E+00  0.000E+00  9.94890E+02  3.015E+00  4.372E+01  2.673E+00 -2.493E-01





UNSATURATED ZONE PACKAGE VOLUMETRIC BUDGET FOR  TIME STEP    30 STRESS PERIOD   23
  ------------------------------------------------------------------------------



     CUMULATIVE VOLUMES      L**3       RATES FOR THIS TIME STEP      L**3/T
     ------------------                 ------------------------

           IN:                                      IN:
           ---                                      ---
        INFILTRATION =  1195825195.3010          INFILTRATION =           4.4075

          OUT:                                     OUT:
          ----                                     ----
              UZF ET =   996091363.2775                UZF ET =           3.7800
        UZF RECHARGE =   147447654.7766          UZF RECHARGE =           0.0004

            IN - OUT =    52286177.2470              IN - OUT =           0.6271

          STORAGE:                                 STORAGE:
          --------                                 --------
      STORAGE CHANGE =    52287681.5888        STORAGE CHANGE =           0.6271

 PERCENT DISCREPANCY IS DIFFERENCE BETWEEN IN-OUT MINUS CHANGE IN STORAGE
 DIVIDED BY THE AVERAGE OF IN AND OUT TIMES 100

 PERCENT DISCREPANCY =          -0.00     PERCENT DISCREPANCY =           0.00






1
  VOLUMETRIC BUDGET FOR AGRICULTURAL FIELDS AT TIME STEP   30, STRESS PERIOD  23
  ------------------------------------------------------------------------------

     CUMULATIVE VOLUMES      L**3       RATES FOR THIS TIME STEP      L**3/T
     ------------------                 ------------------------

           IN:                                      IN:
           ---                                      ---
               AG WELLS  =   940732288.0000                 AG WELLS  =           0.0000
      DIVERSION SEGMENTS =           0.0000        DIVERSION SEGMENTS =           0.0000
           GW IRRIGATION =           0.0000             GW IRRIGATION =           0.0000
           SW IRRIGATION =           0.0000             SW IRRIGATION =           0.0000
        SYSTEM LOSSES GW =           0.0000          SYSTEM LOSSES GW =           0.0000
        SYSTEM LOSSES SW =           0.0000          SYSTEM LOSSES SW =           0.0000

                TOTAL IN =   940732288.0000                  TOTAL IN =           0.0000

          OUT:                                     OUT:
          ----                                     ----
               AG WELLS  =           0.0000                 AG WELLS  =           0.0000
      DIVERSION SEGMENTS =           0.0000        DIVERSION SEGMENTS =           0.0000
           GW IRRIGATION =   940732288.0000             GW IRRIGATION =           0.0000
           SW IRRIGATION =           0.0000             SW IRRIGATION =           0.0000
        SYSTEM LOSSES GW =           0.0000          SYSTEM LOSSES GW =           0.0000
        SYSTEM LOSSES SW =           0.0000          SYSTEM LOSSES SW =           0.0000

               TOTAL OUT =   940732288.0000                 TOTAL OUT =           0.0000

                IN - OUT =           0.0000                  IN - OUT =           0.0000

     PERCENT DISCREPANCY =           0.00         PERCENT DISCREPANCY =           0.00



1
  VOLUMETRIC BUDGET FOR ENTIRE MODEL AT END OF TIME STEP   30, STRESS PERIOD  23
  ------------------------------------------------------------------------------

     CUMULATIVE VOLUMES      L**3       RATES FOR THIS TIME STEP      L**3/T
     ------------------                 ------------------------

           IN:                                      IN:
           ---                                      ---
             STORAGE     =  1156798592.0000               STORAGE     =          11.8852
       CONSTANT HEAD     =           0.0000         CONSTANT HEAD     =           0.0000
     HEAD DEP BOUNDS     =    16540858.0000       HEAD DEP BOUNDS     =           0.2857
      STREAM LEAKAGE     =   723557120.0000        STREAM LEAKAGE     =          11.7033
        UZF RECHARGE     =   147447600.0000          UZF RECHARGE     =       3.9788E-04
               GW ET     =           0.0000                 GW ET     =           0.0000
     SURFACE LEAKAGE     =           0.0000       SURFACE LEAKAGE     =           0.0000
           AG WELLS      =           0.0000             AG WELLS      =           0.0000

                TOTAL IN =  2044344064.0000                  TOTAL IN =          23.8746

          OUT:                                     OUT:
          ----                                     ----
             STORAGE     =   467684416.0000               STORAGE     =          13.0805
       CONSTANT HEAD     =           0.0000         CONSTANT HEAD     =           0.0000
     HEAD DEP BOUNDS     =    17061348.0000       HEAD DEP BOUNDS     =           0.2902
      STREAM LEAKAGE     =   601568128.0000        STREAM LEAKAGE     =          10.5039
        UZF RECHARGE     =           0.0000          UZF RECHARGE     =           0.0000
               GW ET     =    17288296.0000                 GW ET     =           0.0000
     SURFACE LEAKAGE     =           0.0000       SURFACE LEAKAGE     =           0.0000
           AG WELLS      =   940732288.0000             AG WELLS      =           0.0000

               TOTAL OUT =  2044334464.0000                 TOTAL OUT =          23.8746

                IN - OUT =        9600.0000                  IN - OUT =       9.5367E-06

     PERCENT DISCREPANCY =           0.00         PERCENT DISCREPANCY =           0.00






         TIME SUMMARY AT END OF TIME STEP   30 IN STRESS PERIOD   23
                    SECONDS     MINUTES      HOURS       DAYS        YEARS
                    -----------------------------------------------------------
   TIME STEP LENGTH  87667.      1461.1      24.352      1.0147     2.77799E-03
 STRESS PERIOD TIME 2.63000E+06  43833.      730.56      30.440     8.33397E-02
         TOTAL TIME 5.79467E+07 9.65778E+05  16096.      670.68      1.8362    
1
1
                            STRESS PERIOD NO.   24, LENGTH =   2630000.    
                            -----------------------------------------------

                              NUMBER OF TIME STEPS =    30

                               MULTIPLIER FOR DELT =     1.000

                            INITIAL TIME STEP SIZE =   87666.66    

 REUSING NON-PARAMETER GHB CELLS FROM LAST STRESS PERIOD

      2 GHB CELLS

 REUSING STREAM SEGMENT DATA FROM LAST STRESS PERIOD



            AREAL INFILTRATION RATE
 READING ON UNIT   19 WITH FORMAT: (10F4.0)            

            1           2           3           4           5           6           7           8           9          10
 ........................................................................................................................
   1   1.2000E-09   0.000       0.000       0.000       0.000       0.000       0.000       0.000       0.000       0.000    
   2   2.1000E-09  2.0000E-09  8.0000E-10  8.5000E-09   0.000       0.000       0.000       0.000       0.000       0.000    
   3   5.0000E-10  1.1000E-09  8.8000E-09  5.5000E-09   0.000       0.000       0.000       0.000       0.000       0.000    
   4   8.5000E-09  1.1000E-09  1.1000E-09  1.1000E-09  2.0000E-09   0.000       0.000       0.000       0.000       0.000    
   5   8.5000E-09  1.1000E-09  1.1000E-09  1.1000E-09  1.1000E-09   0.000       0.000       0.000       0.000       0.000    
   6   8.5000E-09  5.2000E-09  2.1000E-09  1.1000E-09  1.5000E-09   0.000       0.000       0.000       0.000       0.000    
   7   8.5000E-09  5.2000E-09  2.1000E-09  1.2000E-09  2.0000E-09   0.000       0.000       0.000       0.000       0.000    
   8   5.0000E-10  5.2000E-09  2.1000E-09  1.2000E-09  5.0000E-09   0.000       0.000       0.000       0.000       0.000    
   9   5.0000E-10  5.2000E-09  2.1000E-09  1.2000E-09  5.0000E-09   0.000       0.000       0.000       0.000       0.000    
  10   5.0000E-10  5.2000E-09  2.1000E-09  1.2000E-09  5.8000E-09   0.000       0.000       0.000       0.000       0.000    
  11   1.0000E-10  1.1000E-09  1.1000E-09  1.2000E-09  5.0000E-09   0.000       0.000       0.000       0.000       0.000    
  12   1.1000E-09  1.1000E-09  1.1000E-09  1.1000E-09  2.0000E-09   0.000       0.000       0.000       0.000       0.000    
  13   1.1000E-09  2.2000E-09  2.2000E-09  2.1000E-09  1.0000E-09   0.000       0.000       0.000       0.000       0.000    
  14   2.0000E-10  5.5000E-09  5.5000E-09  5.2000E-09  1.0000E-09   0.000       0.000       0.000       0.000       0.000    
  15    0.000      8.8000E-09  8.8000E-09   0.000       0.000       0.000       0.000       0.000       0.000       0.000    

                  ET RATE =  5.000000E-10

 USING ET EXTINCTION DEPTH FROM PREVIOUS STRESS PERIOD. CURRENT PERIOD IS:      24

 USING EXTINCTION WATER CONTENT FROM PREVIOUS STRESS PERIOD. CURRENT PERIOD IS:      24

 USING AIR ENTRY PRESSURE FROM PREVIOUS STRESS PERIOD. CURRENT PERIOD IS:      24

 USING ROOT PRESSURE HEAD FROM PREVIOUS STRESS PERIOD. CURRENT PERIOD IS:      24

 USING ROOT ACTIVITY FROM PREVIOUS STRESS PERIOD. CURRENT PERIOD IS:      24

 PROCESSING AG STRESS PERIOD DATA

 READING AG STRESS PERIOD DATA

 READING IRRIGATION WELL

 END PROCESSING AG STRESS PERIOD DATA OPTIONS
 
 SOLVING FOR HEAD 
                                                   Max.-Head-Change                         Max.-Flux-Residual
  Residual-Control   Outer-Iter.   Inner-Iter.     Column Row Layer    Maximum-Head-Change  Column Row Layer    Maximum-Flux-Residual          L2-NORM 
          0                 1           2             4    7     1       0.3447449872E-01       4    7    1         0.1818875940E+01      0.4124656203E+01
          0                 2           2             4    7     1      -0.3351645847E-02       4    7    1        -0.1817911461E+00      0.4123149929E+00
          0                 3           2             4    7     1       0.2280632104E-03       4    7    1         0.1271581157E-01      0.2884735319E-01
          0                 4           1             4    7     1      -0.9063517737E-05       4    7    1        -0.5194272189E-03      0.1178858630E-02

    ------------------------------------------------
       NWT REQUIRED            4 OUTER ITERATIONS 
       AND A TOTAL OF          7 INNER ITERATIONS.
    ------------------------------------------------

 NO OUTPUT CONTROL FOR STRESS PERIOD   24   TIME STEP    1
 
 SOLVING FOR HEAD 
                                                   Max.-Head-Change                         Max.-Flux-Residual
  Residual-Control   Outer-Iter.   Inner-Iter.     Column Row Layer    Maximum-Head-Change  Column Row Layer    Maximum-Flux-Residual          L2-NORM 
          0                 1           2             4    7     1       0.3396162105E-01       4    7    1         0.1791231603E+01      0.4079564001E+01
          0                 2           2             4    7     1      -0.3301782282E-02       4    7    1        -0.1790281068E+00      0.4078047378E+00
          0                 3           2             4    7     1       0.2246701961E-03       4    7    1         0.1252254157E-01      0.2853156564E-01
          0                 4           1             4    7     1      -0.8928671887E-05       4    7    1        -0.5115321203E-03      0.1165948902E-02

    ------------------------------------------------
       NWT REQUIRED            4 OUTER ITERATIONS 
       AND A TOTAL OF          7 INNER ITERATIONS.
    ------------------------------------------------

 NO OUTPUT CONTROL FOR STRESS PERIOD   24   TIME STEP    2
 
 SOLVING FOR HEAD 
                                                   Max.-Head-Change                         Max.-Flux-Residual
  Residual-Control   Outer-Iter.   Inner-Iter.     Column Row Layer    Maximum-Head-Change  Column Row Layer    Maximum-Flux-Residual          L2-NORM 
          0                 1           2             4    7     1       0.3346667002E-01       4    7    1         0.1764581166E+01      0.4034497665E+01
          0                 2           2             4    7     1      -0.3253661645E-02       4    7    1        -0.1763644100E+00      0.4032999003E+00
          0                 3           2             4    7     1       0.2213957826E-03       4    7    1         0.1233622051E-01      0.2821656314E-01
          0                 4           1             4    7     1      -0.8798539937E-05       4    7    1        -0.5039209193E-03      0.1153449224E-02

    ------------------------------------------------
       NWT REQUIRED            4 OUTER ITERATIONS 
       AND A TOTAL OF          7 INNER ITERATIONS.
    ------------------------------------------------

 NO OUTPUT CONTROL FOR STRESS PERIOD   24   TIME STEP    3
 
 SOLVING FOR HEAD 
                                                   Max.-Head-Change                         Max.-Flux-Residual
  Residual-Control   Outer-Iter.   Inner-Iter.     Column Row Layer    Maximum-Head-Change  Column Row Layer    Maximum-Flux-Residual          L2-NORM 
          0                 1           2             4    7     1       0.3298849469E-01       4    7    1         0.1738860195E+01      0.3990505896E+01
          0                 2           2             4    7     1      -0.3207172036E-02       4    7    1        -0.1737936155E+00      0.3989024566E+00
          0                 3           2             4    7     1       0.2182323565E-03       4    7    1         0.1215639796E-01      0.2790872840E-01
          0                 4           1             4    7     1      -0.8672818525E-05       4    7    1        -0.4965751887E-03      0.1140473246E-02

    ------------------------------------------------
       NWT REQUIRED            4 OUTER ITERATIONS 
       AND A TOTAL OF          7 INNER ITERATIONS.
    ------------------------------------------------

 NO OUTPUT CONTROL FOR STRESS PERIOD   24   TIME STEP    4
 
 SOLVING FOR HEAD 
                                                   Max.-Head-Change                         Max.-Flux-Residual
  Residual-Control   Outer-Iter.   Inner-Iter.     Column Row Layer    Maximum-Head-Change  Column Row Layer    Maximum-Flux-Residual          L2-NORM 
          0                 1           2             4    7     1       0.3252629660E-01       4    7    1         0.1714023632E+01      0.3947528974E+01
          0                 2           2             4    7     1      -0.3162235820E-02       4    7    1        -0.1713112197E+00      0.3946064508E+00
          0                 3           2             4    7     1       0.2151746338E-03       4    7    1         0.1198275883E-01      0.2760818798E-01
          0                 4           1             4    7     1      -0.8551298580E-05       4    7    1        -0.4894820549E-03      0.1128206888E-02

    ------------------------------------------------
       NWT REQUIRED            4 OUTER ITERATIONS 
       AND A TOTAL OF          7 INNER ITERATIONS.
    ------------------------------------------------

 NO OUTPUT CONTROL FOR STRESS PERIOD   24   TIME STEP    5
 
 SOLVING FOR HEAD 
                                                   Max.-Head-Change                         Max.-Flux-Residual
  Residual-Control   Outer-Iter.   Inner-Iter.     Column Row Layer    Maximum-Head-Change  Column Row Layer    Maximum-Flux-Residual          L2-NORM 
          0                 1           2             4    7     1       0.3207881336E-01       4    7    1         0.1690000844E+01      0.3905509525E+01
          0                 2           2             4    7     1      -0.3118730265E-02       4    7    1        -0.1689101625E+00      0.3904061356E+00
          0                 3           2             4    7     1       0.2122142641E-03       4    7    1         0.1181480933E-01      0.2731430942E-01
          0                 4           1             4    7     1      -0.8433647267E-05       4    7    1        -0.4826213431E-03      0.1116189381E-02

    ------------------------------------------------
       NWT REQUIRED            4 OUTER ITERATIONS 
       AND A TOTAL OF          7 INNER ITERATIONS.
    ------------------------------------------------

 NO OUTPUT CONTROL FOR STRESS PERIOD   24   TIME STEP    6
 
 SOLVING FOR HEAD 
                                                   Max.-Head-Change                         Max.-Flux-Residual
  Residual-Control   Outer-Iter.   Inner-Iter.     Column Row Layer    Maximum-Head-Change  Column Row Layer    Maximum-Flux-Residual          L2-NORM 
          0                 1           2             4    7     1       0.3164540768E-01       4    7    1         0.1666755615E+01      0.3864404505E+01
          0                 2           2             4    7     1      -0.3076593404E-02       4    7    1        -0.1665868239E+00      0.3862972434E+00
          0                 3           2             4    7     1       0.2093470294E-03       4    7    1         0.1165229617E-01      0.2702684368E-01
          0                 4           1             4    7     1      -0.8319697998E-05       4    7    1        -0.4759827164E-03      0.1104455541E-02

    ------------------------------------------------
       NWT REQUIRED            4 OUTER ITERATIONS 
       AND A TOTAL OF          7 INNER ITERATIONS.
    ------------------------------------------------

 NO OUTPUT CONTROL FOR STRESS PERIOD   24   TIME STEP    7
 
 SOLVING FOR HEAD 
                                                   Max.-Head-Change                         Max.-Flux-Residual
  Residual-Control   Outer-Iter.   Inner-Iter.     Column Row Layer    Maximum-Head-Change  Column Row Layer    Maximum-Flux-Residual          L2-NORM 
          0                 1           2             4    7     1       0.3122508885E-01       4    7    1         0.1644232973E+01      0.3824161113E+01
          0                 2           2             4    7     1      -0.3035728892E-02       4    7    1        -0.1643357094E+00      0.3822500261E+00
          0                 3           2             4    7     1       0.2065663750E-03       4    7    1         0.1149483509E-01      0.2674368541E-01
          0                 4           1             4    7     1      -0.8209189662E-05       4    7    1        -0.4695504927E-03      0.1092838272E-02

    ------------------------------------------------
       NWT REQUIRED            4 OUTER ITERATIONS 
       AND A TOTAL OF          7 INNER ITERATIONS.
    ------------------------------------------------

 NO OUTPUT CONTROL FOR STRESS PERIOD   24   TIME STEP    8
 
 SOLVING FOR HEAD 
                                                   Max.-Head-Change                         Max.-Flux-Residual
  Residual-Control   Outer-Iter.   Inner-Iter.     Column Row Layer    Maximum-Head-Change  Column Row Layer    Maximum-Flux-Residual          L2-NORM 
          0                 1           2             4    7     1       0.3081721494E-01       4    7    1         0.1622396174E+01      0.3784770391E+01
          0                 2           2             4    7     1      -0.2996074389E-02       4    7    1        -0.1621531462E+00      0.3783369362E+00
          0                 3           2             4    7     1       0.2038680577E-03       4    7    1         0.1134216911E-01      0.2646993031E-01
          0                 4           1             4    7     1      -0.8101953483E-05       4    7    1        -0.4633141307E-03      0.1081708741E-02

    ------------------------------------------------
       NWT REQUIRED            4 OUTER ITERATIONS 
       AND A TOTAL OF          7 INNER ITERATIONS.
    ------------------------------------------------

 NO OUTPUT CONTROL FOR STRESS PERIOD   24   TIME STEP    9
 
 SOLVING FOR HEAD 
                                                   Max.-Head-Change                         Max.-Flux-Residual
  Residual-Control   Outer-Iter.   Inner-Iter.     Column Row Layer    Maximum-Head-Change  Column Row Layer    Maximum-Flux-Residual          L2-NORM 
          0                 1           2             4    7     1       0.3042105196E-01       4    7    1         0.1601204620E+01      0.3746172710E+01
          0                 2           2             4    7     1      -0.2957558458E-02       4    7    1        -0.1600350765E+00      0.3744786874E+00
          0                 3           2             4    7     1       0.2012472166E-03       4    7    1         0.1119401439E-01      0.2619999726E-01
          0                 4           1             4    7     1      -0.7997796392E-05       4    7    1        -0.4572620658E-03      0.1070655263E-02

    ------------------------------------------------
       NWT REQUIRED            4 OUTER ITERATIONS 
       AND A TOTAL OF          7 INNER ITERATIONS.
    ------------------------------------------------

 NO OUTPUT CONTROL FOR STRESS PERIOD   24   TIME STEP   10
 
 SOLVING FOR HEAD 
                                                   Max.-Head-Change                         Max.-Flux-Residual
  Residual-Control   Outer-Iter.   Inner-Iter.     Column Row Layer    Maximum-Head-Change  Column Row Layer    Maximum-Flux-Residual          L2-NORM 
          0                 1           2             4    7     1       0.3003606034E-01       4    7    1         0.1580627571E+01      0.3708324369E+01
          0                 2           2             4    7     1      -0.2920128663E-02       4    7    1        -0.1579784276E+00      0.3706953360E+00
          0                 3           2             4    7     1       0.1987002839E-03       4    7    1         0.1105015603E-01      0.2593530958E-01
          0                 4           1             4    7     1      -0.7896577126E-05       4    7    1        -0.4513855213E-03      0.1059835840E-02

    ------------------------------------------------
       NWT REQUIRED            4 OUTER ITERATIONS 
       AND A TOTAL OF          7 INNER ITERATIONS.
    ------------------------------------------------

 NO OUTPUT CONTROL FOR STRESS PERIOD   24   TIME STEP   11
 
 SOLVING FOR HEAD 
                                                   Max.-Head-Change                         Max.-Flux-Residual
  Residual-Control   Outer-Iter.   Inner-Iter.     Column Row Layer    Maximum-Head-Change  Column Row Layer    Maximum-Flux-Residual          L2-NORM 
          0                 1           2             4    7     1       0.2966133919E-01       4    7    1         0.1560615113E+01      0.3671196979E+01
          0                 2           2             4    7     1      -0.2883697108E-02       4    7    1        -0.1559782105E+00      0.3669650209E+00
          0                 3           2             4    7     1       0.1962212779E-03       4    7    1         0.1091024504E-01      0.2567430220E-01
          0                 4           1             4    7     1      -0.7798056682E-05       4    7    1        -0.4456702029E-03      0.1049176145E-02

    ------------------------------------------------
       NWT REQUIRED            4 OUTER ITERATIONS 
       AND A TOTAL OF          7 INNER ITERATIONS.
    ------------------------------------------------

 NO OUTPUT CONTROL FOR STRESS PERIOD   24   TIME STEP   12
 
 SOLVING FOR HEAD 
                                                   Max.-Head-Change                         Max.-Flux-Residual
  Residual-Control   Outer-Iter.   Inner-Iter.     Column Row Layer    Maximum-Head-Change  Column Row Layer    Maximum-Flux-Residual          L2-NORM 
          0                 1           2             4    7     1       0.2929658814E-01       4    7    1         0.1541149802E+01      0.3634769226E+01
          0                 2           2             4    7     1      -0.2848235508E-02       4    7    1        -0.1540326817E+00      0.3633426721E+00
          0                 3           2             4    7     1       0.1938082744E-03       4    7    1         0.1077415942E-01      0.2542089767E-01
          0                 4           1             4    7     1      -0.7702160112E-05       4    7    1        -0.4401111935E-03      0.1038831453E-02

    ------------------------------------------------
       NWT REQUIRED            4 OUTER ITERATIONS 
       AND A TOTAL OF          7 INNER ITERATIONS.
    ------------------------------------------------

 NO OUTPUT CONTROL FOR STRESS PERIOD   24   TIME STEP   13
 
 SOLVING FOR HEAD 
                                                   Max.-Head-Change                         Max.-Flux-Residual
  Residual-Control   Outer-Iter.   Inner-Iter.     Column Row Layer    Maximum-Head-Change  Column Row Layer    Maximum-Flux-Residual          L2-NORM 
          0                 1           2             4    7     1       0.2894113428E-01       4    7    1         0.1522194077E+01      0.3599110641E+01
          0                 2           2             4    7     1      -0.2813677517E-02       4    7    1        -0.1521380867E+00      0.3597782271E+00
          0                 3           2             4    7     1       0.1914567582E-03       4    7    1         0.1064163659E-01      0.2517151230E-01
          0                 4           1             4    7     1      -0.7608706779E-05       4    7    1        -0.4346976930E-03      0.1028636501E-02

    ------------------------------------------------
       NWT REQUIRED            4 OUTER ITERATIONS 
       AND A TOTAL OF          7 INNER ITERATIONS.
    ------------------------------------------------

 NO OUTPUT CONTROL FOR STRESS PERIOD   24   TIME STEP   14
 
 SOLVING FOR HEAD 
                                                   Max.-Head-Change                         Max.-Flux-Residual
  Residual-Control   Outer-Iter.   Inner-Iter.     Column Row Layer    Maximum-Head-Change  Column Row Layer    Maximum-Flux-Residual          L2-NORM 
          0                 1           2             4    7     1       0.2859461533E-01       4    7    1         0.1503727725E+01      0.3564088018E+01
          0                 2           2             4    7     1      -0.2779988220E-02       4    7    1        -0.1502924051E+00      0.3562772947E+00
          0                 3           2             4    7     1       0.1891643534E-03       4    7    1         0.1051253522E-01      0.2492656250E-01
          0                 4           1             4    7     1      -0.7517602624E-05       4    7    1        -0.4294239648E-03      0.1018636038E-02

    ------------------------------------------------
       NWT REQUIRED            4 OUTER ITERATIONS 
       AND A TOTAL OF          7 INNER ITERATIONS.
    ------------------------------------------------

 NO OUTPUT CONTROL FOR STRESS PERIOD   24   TIME STEP   15
 
 SOLVING FOR HEAD 
                                                   Max.-Head-Change                         Max.-Flux-Residual
  Residual-Control   Outer-Iter.   Inner-Iter.     Column Row Layer    Maximum-Head-Change  Column Row Layer    Maximum-Flux-Residual          L2-NORM 
          0                 1           2             4    7     1       0.2825656480E-01       4    7    1         0.1485724633E+01      0.3529683770E+01
          0                 2           2             4    7     1      -0.2747122332E-02       4    7    1        -0.1484930269E+00      0.3528382829E+00
          0                 3           2             4    7     1       0.1869279793E-03       4    7    1         0.1038667272E-01      0.2468599166E-01
          0                 4           1             4    7     1      -0.7428725383E-05       4    7    1        -0.4242825487E-03      0.1008782115E-02

    ------------------------------------------------
       NWT REQUIRED            4 OUTER ITERATIONS 
       AND A TOTAL OF          7 INNER ITERATIONS.
    ------------------------------------------------

 NO OUTPUT CONTROL FOR STRESS PERIOD   24   TIME STEP   16
 
 SOLVING FOR HEAD 
                                                   Max.-Head-Change                         Max.-Flux-Residual
  Residual-Control   Outer-Iter.   Inner-Iter.     Column Row Layer    Maximum-Head-Change  Column Row Layer    Maximum-Flux-Residual          L2-NORM 
          0                 1           2             4    7     1       0.2792654938E-01       4    7    1         0.1468160609E+01      0.3495859761E+01
          0                 2           2             4    7     1      -0.2715037580E-02       4    7    1        -0.1467375342E+00      0.3494572137E+00
          0                 3           2             4    7     1       0.1847447589E-03       4    7    1         0.1026387996E-01      0.2444944172E-01
          0                 4           1             4    7     1      -0.7341960619E-05       4    7    1        -0.4192665469E-03      0.9991396601E-03

    ------------------------------------------------
       NWT REQUIRED            4 OUTER ITERATIONS 
       AND A TOTAL OF          7 INNER ITERATIONS.
    ------------------------------------------------

 NO OUTPUT CONTROL FOR STRESS PERIOD   24   TIME STEP   17
 
 SOLVING FOR HEAD 
                                                   Max.-Head-Change                         Max.-Flux-Residual
  Residual-Control   Outer-Iter.   Inner-Iter.     Column Row Layer    Maximum-Head-Change  Column Row Layer    Maximum-Flux-Residual          L2-NORM 
          0                 1           2             4    7     1       0.2760416396E-01       4    7    1         0.1451013196E+01      0.3462614316E+01
          0                 2           2             4    7     1      -0.2683694650E-02       4    7    1        -0.1450236820E+00      0.3461339555E+00
          0                 3           2             4    7     1       0.1826120171E-03       4    7    1         0.1014399990E-01      0.2421694129E-01
          0                 4           1             4    7     1      -0.7257202873E-05       4    7    1        -0.4143695458E-03      0.9896271662E-03

    ------------------------------------------------
       NWT REQUIRED            4 OUTER ITERATIONS 
       AND A TOTAL OF          7 INNER ITERATIONS.
    ------------------------------------------------

 NO OUTPUT CONTROL FOR STRESS PERIOD   24   TIME STEP   18
 
 SOLVING FOR HEAD 
                                                   Max.-Head-Change                         Max.-Flux-Residual
  Residual-Control   Outer-Iter.   Inner-Iter.     Column Row Layer    Maximum-Head-Change  Column Row Layer    Maximum-Flux-Residual          L2-NORM 
          0                 1           2             4    7     1       0.2728903514E-01       4    7    1         0.1434261384E+01      0.3429910854E+01
          0                 2           2             4    7     1      -0.2653057237E-02       4    7    1        -0.1433493706E+00      0.3428648838E+00
          0                 3           2             4    7     1       0.1805272827E-03       4    7    1         0.1002688567E-01      0.2398821498E-01
          0                 4           1             4    7     1      -0.7174351986E-05       4    7    1        -0.4095855013E-03      0.9802907930E-03

    ------------------------------------------------
       NWT REQUIRED            4 OUTER ITERATIONS 
       AND A TOTAL OF          7 INNER ITERATIONS.
    ------------------------------------------------

 NO OUTPUT CONTROL FOR STRESS PERIOD   24   TIME STEP   19
 
 SOLVING FOR HEAD 
                                                   Max.-Head-Change                         Max.-Flux-Residual
  Residual-Control   Outer-Iter.   Inner-Iter.     Column Row Layer    Maximum-Head-Change  Column Row Layer    Maximum-Flux-Residual          L2-NORM 
          0                 1           2             4    7     1       0.2698094407E-01       4    7    1         0.1417893130E+01      0.3397750959E+01
          0                 2           2             4    7     1      -0.2623104066E-02       4    7    1        -0.1417133960E+00      0.3396501429E+00
          0                 3           2             4    7     1       0.1784891089E-03       4    7    1         0.9912453075E-02      0.2376329795E-01
          0                 4           1             4    7     1      -0.7093352006E-05       4    7    1        -0.4049110200E-03      0.9710937906E-03

    ------------------------------------------------
       NWT REQUIRED            4 OUTER ITERATIONS 
       AND A TOTAL OF          7 INNER ITERATIONS.
    ------------------------------------------------

 NO OUTPUT CONTROL FOR STRESS PERIOD   24   TIME STEP   20
 
 SOLVING FOR HEAD 
                                                   Max.-Head-Change                         Max.-Flux-Residual
  Residual-Control   Outer-Iter.   Inner-Iter.     Column Row Layer    Maximum-Head-Change  Column Row Layer    Maximum-Flux-Residual          L2-NORM 
          0                 1           2             4    7     1       0.2667942656E-01       4    7    1         0.1401882454E+01      0.3366105912E+01
          0                 2           2             4    7     1      -0.2593790001E-02       4    7    1        -0.1401131618E+00      0.3364868896E+00
          0                 3           2             4    7     1       0.1764944235E-03       4    7    1         0.9800520456E-02      0.2354200360E-01
          0                 4           1             4    7     1      -0.7014079746E-05       4    7    1        -0.4003386359E-03      0.9620524669E-03

    ------------------------------------------------
       NWT REQUIRED            4 OUTER ITERATIONS 
       AND A TOTAL OF          7 INNER ITERATIONS.
    ------------------------------------------------

 NO OUTPUT CONTROL FOR STRESS PERIOD   24   TIME STEP   21
 
 SOLVING FOR HEAD 
                                                   Max.-Head-Change                         Max.-Flux-Residual
  Residual-Control   Outer-Iter.   Inner-Iter.     Column Row Layer    Maximum-Head-Change  Column Row Layer    Maximum-Flux-Residual          L2-NORM 
          0                 1           2             4    7     1       0.2638417764E-01       4    7    1         0.1386212605E+01      0.3334964589E+01
          0                 2           2             4    7     1      -0.2565085395E-02       4    7    1        -0.1385469933E+00      0.3333739966E+00
          0                 3           2             4    7     1       0.1745412099E-03       4    7    1         0.9690970701E-02      0.2332422773E-01
          0                 4           1             4    7     1      -0.6936456343E-05       4    7    1        -0.3958636189E-03      0.9531423777E-03

    ------------------------------------------------
       NWT REQUIRED            4 OUTER ITERATIONS 
       AND A TOTAL OF          7 INNER ITERATIONS.
    ------------------------------------------------

 NO OUTPUT CONTROL FOR STRESS PERIOD   24   TIME STEP   22
 
 SOLVING FOR HEAD 
                                                   Max.-Head-Change                         Max.-Flux-Residual
  Residual-Control   Outer-Iter.   Inner-Iter.     Column Row Layer    Maximum-Head-Change  Column Row Layer    Maximum-Flux-Residual          L2-NORM 
          0                 1           2             4    7     1       0.2609505332E-01       4    7    1         0.1370875088E+01      0.3304316939E+01
          0                 2           2             4    7     1      -0.2536976245E-02       4    7    1        -0.1370140416E+00      0.3303104253E+00
          0                 3           2             4    7     1       0.1726285150E-03       4    7    1         0.9583744416E-02      0.2310991577E-01
          0                 4           1             4    7     1      -0.6860443114E-05       4    7    1        -0.3914835154E-03      0.9444024300E-03

    ------------------------------------------------
       NWT REQUIRED            4 OUTER ITERATIONS 
       AND A TOTAL OF          7 INNER ITERATIONS.
    ------------------------------------------------

 NO OUTPUT CONTROL FOR STRESS PERIOD   24   TIME STEP   23
 
 SOLVING FOR HEAD 
                                                   Max.-Head-Change                         Max.-Flux-Residual
  Residual-Control   Outer-Iter.   Inner-Iter.     Column Row Layer    Maximum-Head-Change  Column Row Layer    Maximum-Flux-Residual          L2-NORM 
          0                 1           2             4    7     1       0.2581177606E-01       4    7    1         0.1355855121E+01      0.3274135710E+01
          0                 2           2             4    7     1      -0.2509435570E-02       4    7    1        -0.1355128291E+00      0.3272935330E+00
          0                 3           2             4    7     1       0.1707545023E-03       4    7    1         0.9478738233E-02      0.2289884220E-01
          0                 4           1             4    7     1      -0.6785967300E-05       4    7    1        -0.3871941012E-03      0.9357742871E-03

    ------------------------------------------------
       NWT REQUIRED            4 OUTER ITERATIONS 
       AND A TOTAL OF          7 INNER ITERATIONS.
    ------------------------------------------------

 NO OUTPUT CONTROL FOR STRESS PERIOD   24   TIME STEP   24
 
 SOLVING FOR HEAD 
                                                   Max.-Head-Change                         Max.-Flux-Residual
  Residual-Control   Outer-Iter.   Inner-Iter.     Column Row Layer    Maximum-Head-Change  Column Row Layer    Maximum-Flux-Residual          L2-NORM 
          0                 1           2             4    7     1       0.2553396176E-01       4    7    1         0.1341130995E+01      0.3244422956E+01
          0                 2           2             4    7     1      -0.2482426024E-02       4    7    1        -0.1340411861E+00      0.3243234153E+00
          0                 3           2             4    7     1       0.1689166313E-03       4    7    1         0.9375800422E-02      0.2269101088E-01
          0                 4           1             4    7     1      -0.6712927702E-05       4    7    1        -0.3829891748E-03      0.9272666696E-03

    ------------------------------------------------
       NWT REQUIRED            4 OUTER ITERATIONS 
       AND A TOTAL OF          7 INNER ITERATIONS.
    ------------------------------------------------

 NO OUTPUT CONTROL FOR STRESS PERIOD   24   TIME STEP   25
 
 SOLVING FOR HEAD 
                                                   Max.-Head-Change                         Max.-Flux-Residual
  Residual-Control   Outer-Iter.   Inner-Iter.     Column Row Layer    Maximum-Head-Change  Column Row Layer    Maximum-Flux-Residual          L2-NORM 
          0                 1           2             4    7     1       0.2526151492E-01       4    7    1         0.1326697431E+01      0.3215160719E+01
          0                 2           2             4    7     1      -0.2455938322E-02       4    7    1        -0.1325985848E+00      0.3213983629E+00
          0                 3           2             4    7     1       0.1671142694E-03       4    7    1         0.9274894012E-02      0.2248639080E-01
          0                 4           1             4    7     1      -0.6641299339E-05       4    7    1        -0.3788672357E-03      0.9189240626E-03

    ------------------------------------------------
       NWT REQUIRED            4 OUTER ITERATIONS 
       AND A TOTAL OF          7 INNER ITERATIONS.
    ------------------------------------------------

 NO OUTPUT CONTROL FOR STRESS PERIOD   24   TIME STEP   26
 
 SOLVING FOR HEAD 
                                                   Max.-Head-Change                         Max.-Flux-Residual
  Residual-Control   Outer-Iter.   Inner-Iter.     Column Row Layer    Maximum-Head-Change  Column Row Layer    Maximum-Flux-Residual          L2-NORM 
          0                 1           2             4    7     1       0.2499434853E-01       4    7    1         0.1312549480E+01      0.3186343517E+01
          0                 2           2             4    7     1      -0.2429964005E-02       4    7    1        -0.1311845305E+00      0.3185178263E+00
          0                 3           2             4    7     1       0.1653468416E-03       4    7    1         0.9175984426E-02      0.2228489793E-01
          0                 4           1             4    7     1      -0.6571059414E-05       4    7    1        -0.3748268650E-03      0.9106894493E-03

    ------------------------------------------------
       NWT REQUIRED            4 OUTER ITERATIONS 
       AND A TOTAL OF          7 INNER ITERATIONS.
    ------------------------------------------------

 NO OUTPUT CONTROL FOR STRESS PERIOD   24   TIME STEP   27
 
 SOLVING FOR HEAD 
                                                   Max.-Head-Change                         Max.-Flux-Residual
  Residual-Control   Outer-Iter.   Inner-Iter.     Column Row Layer    Maximum-Head-Change  Column Row Layer    Maximum-Flux-Residual          L2-NORM 
          0                 1           2             4    7     1       0.2473197974E-01       4    7    1         0.1298660672E+01      0.3157947025E+01
          0                 2           2             4    7     1      -0.2404456126E-02       4    7    1        -0.1297963776E+00      0.3156793024E+00
          0                 3           2             4    7     1       0.1636111528E-03       4    7    1         0.9078886606E-02      0.2208628129E-01
          0                 4           1             4    7     1      -0.6502080942E-05       4    7    1        -0.3708605077E-03      0.9025624744E-03

    ------------------------------------------------
       NWT REQUIRED            4 OUTER ITERATIONS 
       AND A TOTAL OF          7 INNER ITERATIONS.
    ------------------------------------------------

 NO OUTPUT CONTROL FOR STRESS PERIOD   24   TIME STEP   28
 
 SOLVING FOR HEAD 
                                                   Max.-Head-Change                         Max.-Flux-Residual
  Residual-Control   Outer-Iter.   Inner-Iter.     Column Row Layer    Maximum-Head-Change  Column Row Layer    Maximum-Flux-Residual          L2-NORM 
          0                 1           2             4    7     1       0.2447435370E-01       4    7    1         0.1285027929E+01      0.3129965794E+01
          0                 2           2             4    7     1      -0.2379409355E-02       4    7    1        -0.1284338184E+00      0.3128823221E+00
          0                 3           2             4    7     1       0.1619068405E-03       4    7    1         0.8983579019E-02      0.2189062896E-01
          0                 4           1             4    7     1      -0.6434348957E-05       4    7    1        -0.3669672728E-03      0.8945761683E-03

    ------------------------------------------------
       NWT REQUIRED            4 OUTER ITERATIONS 
       AND A TOTAL OF          7 INNER ITERATIONS.
    ------------------------------------------------

 NO OUTPUT CONTROL FOR STRESS PERIOD   24   TIME STEP   29
 
 SOLVING FOR HEAD 
                                                   Max.-Head-Change                         Max.-Flux-Residual
  Residual-Control   Outer-Iter.   Inner-Iter.     Column Row Layer    Maximum-Head-Change  Column Row Layer    Maximum-Flux-Residual          L2-NORM 
          0                 1           2             4    7     1       0.2422142606E-01       4    7    1         0.1271648410E+01      0.3102399939E+01
          0                 2           2             4    7     1      -0.2354819376E-02       4    7    1        -0.1270965688E+00      0.3101268533E+00
          0                 3           2             4    7     1       0.1602336110E-03       4    7    1         0.8890041789E-02      0.2169785741E-01
          0                 4           1             4    7     1      -0.6367852637E-05       4    7    1        -0.3631463624E-03      0.8867136054E-03

    ------------------------------------------------
       NWT REQUIRED            4 OUTER ITERATIONS 
       AND A TOTAL OF          7 INNER ITERATIONS.
    ------------------------------------------------

 NO OUTPUT CONTROL FOR STRESS PERIOD   24   TIME STEP   30



 STREAM LISTING     PERIOD     24   STEP       30

 LAYER ROW COL. STREAM  RCH.  FLOW INTO     FLOW TO   FLOW OUT OF   OVRLND.     DIRECT     STREAM       STREAM     STREAM     STREAM   STREAMBED  STREAMBED
                SEG.NO.  NO.  STRM. RCH.    AQUIFER    STRM. RCH.    RUNOFF     PRECIP       ET          HEAD       DEPTH      WIDTH   CONDCTNC.   GRADIENT

   1    1    1     1     1    2.1000E+01  2.2592E-01   2.0774E+01  0.000E+00  0.000E+00  0.000E+00  1.09416E+03  1.115E+00  1.220E+01  5.490E-02  1.372E+00
   1    2    2     1     2    2.0774E+01  3.4917E-01   2.0425E+01  0.000E+00  0.000E+00  0.000E+00  1.08917E+03  1.110E+00  1.214E+01  8.495E-02  1.370E+00
   1    3    3     1     3    2.0425E+01  2.9709E-01   2.0128E+01  0.000E+00  0.000E+00  0.000E+00  1.08352E+03  1.105E+00  1.206E+01  7.238E-02  1.368E+00
   1    3    4     1     4    2.0128E+01  2.7299E-01   1.9855E+01  0.000E+00  0.000E+00  0.000E+00  1.07851E+03  1.100E+00  1.200E+01  6.659E-02  1.367E+00
   1    4    5     2     1    1.7855E+01  3.1056E-01   1.7545E+01  0.000E+00  0.000E+00  0.000E+00  1.07292E+03  9.816E-01  1.200E+01  7.800E-02  1.327E+00
   1    5    6     2     2    1.7545E+01  2.3835E-01   1.7306E+01  0.000E+00  0.000E+00  0.000E+00  1.06748E+03  9.724E-01  1.200E+01  6.000E-02  1.324E+00
   1    6    6     2     3    1.7306E+01  2.3787E-01   1.7068E+01  0.000E+00  0.000E+00  0.000E+00  1.06276E+03  9.644E-01  1.200E+01  6.000E-02  1.321E+00
   1    7    6     2     4    1.7068E+01  2.3738E-01   1.6831E+01  0.000E+00  0.000E+00  0.000E+00  1.05803E+03  9.564E-01  1.200E+01  6.000E-02  1.319E+00
   1    8    6     2     5    1.6831E+01  2.3690E-01   1.6594E+01  0.000E+00  0.000E+00  0.000E+00  1.05331E+03  9.484E-01  1.200E+01  6.000E-02  1.316E+00
   1    3    5     3     1    2.0000E+00  2.8252E-01   1.7175E+00  0.000E+00  0.000E+00  0.000E+00  1.07555E+03  1.909E+00  9.636E+00  7.227E-02  1.955E+00
   1    3    6     3     2    1.7175E+00  2.4905E-01   1.4684E+00  0.000E+00  0.000E+00  0.000E+00  1.07264E+03  1.727E+00  8.909E+00  6.682E-02  1.864E+00
   1    3    7     3     3    1.4684E+00  1.9718E-01   1.2712E+00  0.000E+00  0.000E+00  0.000E+00  1.06987E+03  1.555E+00  8.218E+00  5.547E-02  1.777E+00
   1    4    8     3     4    1.2712E+00  2.2567E-01   1.0456E+00  0.000E+00  0.000E+00  0.000E+00  1.06682E+03  1.364E+00  7.455E+00  6.709E-02  1.682E+00
   1    5    8     3     5    1.0456E+00  1.5790E-01   8.8768E-01  0.000E+00  0.000E+00  0.000E+00  1.06362E+03  1.164E+00  6.655E+00  4.991E-02  1.582E+00
   1    6    8     3     6    8.8768E-01  5.5980E-02   8.3170E-01  0.000E+00  0.000E+00  0.000E+00  1.06158E+03  1.036E+00  6.145E+00  1.844E-02  1.518E+00
   1    5   10     4     1    1.0000E+01  9.0919E-02   9.9091E+00  0.000E+00  0.000E+00  0.000E+00  1.07836E+03  6.368E-01  1.000E+01  2.500E-02  1.212E+00
   1    5    9     4     2    9.9091E+00  1.8158E-01   9.7275E+00  0.000E+00  0.000E+00  0.000E+00  1.07154E+03  6.315E-01  1.000E+01  5.000E-02  1.211E+00
   1    6    8     4     3    9.7275E+00  1.2689E-01   9.6006E+00  0.000E+00  0.000E+00  0.000E+00  1.06381E+03  6.256E-01  1.000E+01  3.500E-02  1.209E+00
   1    6    8     5     1    1.0432E+01  2.2686E-01   1.0205E+01  0.000E+00  0.000E+00  0.000E+00  1.05868E+03  6.790E-01  1.542E+01  6.166E-02  1.226E+00
   1    7    7     5     2    1.0205E+01  2.7894E-01   9.9265E+00  0.000E+00  0.000E+00  0.000E+00  1.05417E+03  6.732E-01  1.519E+01  7.594E-02  1.224E+00
   1    8    7     5     3    9.9265E+00  1.9221E-01   9.7343E+00  0.000E+00  0.000E+00  0.000E+00  1.04992E+03  6.676E-01  1.497E+01  5.241E-02  1.223E+00
   1    8    6     5     4    9.7343E+00  1.3577E-01   9.5985E+00  0.000E+00  0.000E+00  0.000E+00  1.04691E+03  6.637E-01  1.482E+01  3.706E-02  1.221E+00
   1    9    6     6     1    2.6193E+01  2.5512E-01   2.5938E+01  0.000E+00  0.000E+00  0.000E+00  1.04398E+03  1.252E+00  1.200E+01  6.000E-02  1.417E+00
   1   10    7     6     2    2.5938E+01  2.5468E-01   2.5683E+01  0.000E+00  0.000E+00  0.000E+00  1.03943E+03  1.245E+00  1.200E+01  6.000E-02  1.415E+00
   1   11    7     6     3    2.5683E+01  2.5424E-01   2.5429E+01  0.000E+00  0.000E+00  0.000E+00  1.03487E+03  1.237E+00  1.200E+01  6.000E-02  1.412E+00
   1   12    7     6     4    2.5429E+01  2.5379E-01   2.5175E+01  0.000E+00  0.000E+00  0.000E+00  1.03032E+03  1.230E+00  1.200E+01  6.000E-02  1.410E+00
   1   13    7     6     5    2.5175E+01  3.4999E-03   2.5171E+01  0.000E+00  0.000E+00  0.000E+00  1.02714E+03  1.226E+00  1.200E+01  2.400E-02  4.861E-02
   1   14    9     7     1    1.5000E+02  1.3366E+00   1.4866E+02  0.000E+00  0.000E+00  0.000E+00  1.03987E+03  2.288E+00  5.529E+01  5.593E-01  7.966E-01
   1   13    8     7     2    1.4866E+02  1.8507E+00   1.4681E+02  0.000E+00  0.000E+00  0.000E+00  1.03478E+03  2.279E+00  5.526E+01  6.148E-01  1.003E+00
   1   13    7     7     3    1.4681E+02  1.5079E+00   1.4530E+02  0.000E+00  0.000E+00  0.000E+00  1.02969E+03  2.270E+00  5.522E+01  5.584E-01  9.001E-01
   1   13    6     8     1    1.7048E+02  9.6652E-01   1.6951E+02  0.000E+00  0.000E+00  0.000E+00  1.02483E+03  2.952E+00  4.281E+01  4.362E-01  7.386E-01
   1   13    5     8     2    1.6951E+02  2.2477E-01   1.6928E+02  0.000E+00  0.000E+00  0.000E+00  1.01857E+03  2.948E+00  4.275E+01  4.356E-01  1.720E-01
   1   13    4     8     3    1.6928E+02 -2.2528E+00   1.7154E+02  0.000E+00  0.000E+00  0.000E+00  1.01233E+03  2.955E+00  4.285E+01  4.366E+00 -1.720E-01
   1   13    3     8     4    1.7154E+02 -3.5784E+00   1.7512E+02  0.000E+00  0.000E+00  0.000E+00  1.00610E+03  2.974E+00  4.312E+01  4.394E+00 -2.715E-01
   1   13    2     8     5    1.7512E+02 -2.5688E+00   1.7768E+02  0.000E+00  0.000E+00  0.000E+00  9.99868E+02  2.993E+00  4.340E+01  4.423E+00 -1.936E-01
   1   13    1     8     6    1.7768E+02 -1.9876E+00   1.7967E+02  0.000E+00  0.000E+00  0.000E+00  9.94883E+02  3.008E+00  4.361E+01  2.667E+00 -2.485E-01





UNSATURATED ZONE PACKAGE VOLUMETRIC BUDGET FOR  TIME STEP    30 STRESS PERIOD   24
  ------------------------------------------------------------------------------



     CUMULATIVE VOLUMES      L**3       RATES FOR THIS TIME STEP      L**3/T
     ------------------                 ------------------------

           IN:                                      IN:
           ---                                      ---
        INFILTRATION =  1207416919.8591          INFILTRATION =           4.4075

          OUT:                                     OUT:
          ----                                     ----
              UZF ET =   997998113.1354                UZF ET =           0.7250
        UZF RECHARGE =   147448564.9308          UZF RECHARGE =           0.0003

            IN - OUT =    61970241.7929              IN - OUT =           3.6822

          STORAGE:                                 STORAGE:
          --------                                 --------
      STORAGE CHANGE =    61971746.0736        STORAGE CHANGE =           3.6822

 PERCENT DISCREPANCY IS DIFFERENCE BETWEEN IN-OUT MINUS CHANGE IN STORAGE
 DIVIDED BY THE AVERAGE OF IN AND OUT TIMES 100

 PERCENT DISCREPANCY =          -0.00     PERCENT DISCREPANCY =           0.00






1
  VOLUMETRIC BUDGET FOR AGRICULTURAL FIELDS AT TIME STEP   30, STRESS PERIOD  24
  ------------------------------------------------------------------------------

     CUMULATIVE VOLUMES      L**3       RATES FOR THIS TIME STEP      L**3/T
     ------------------                 ------------------------

           IN:                                      IN:
           ---                                      ---
               AG WELLS  =   940732288.0000                 AG WELLS  =           0.0000
      DIVERSION SEGMENTS =           0.0000        DIVERSION SEGMENTS =           0.0000
           GW IRRIGATION =           0.0000             GW IRRIGATION =           0.0000
           SW IRRIGATION =           0.0000             SW IRRIGATION =           0.0000
        SYSTEM LOSSES GW =           0.0000          SYSTEM LOSSES GW =           0.0000
        SYSTEM LOSSES SW =           0.0000          SYSTEM LOSSES SW =           0.0000

                TOTAL IN =   940732288.0000                  TOTAL IN =           0.0000

          OUT:                                     OUT:
          ----                                     ----
               AG WELLS  =           0.0000                 AG WELLS  =           0.0000
      DIVERSION SEGMENTS =           0.0000        DIVERSION SEGMENTS =           0.0000
           GW IRRIGATION =   940732288.0000             GW IRRIGATION =           0.0000
           SW IRRIGATION =           0.0000             SW IRRIGATION =           0.0000
        SYSTEM LOSSES GW =           0.0000          SYSTEM LOSSES GW =           0.0000
        SYSTEM LOSSES SW =           0.0000          SYSTEM LOSSES SW =           0.0000

               TOTAL OUT =   940732288.0000                 TOTAL OUT =           0.0000

                IN - OUT =           0.0000                  IN - OUT =           0.0000

     PERCENT DISCREPANCY =           0.00         PERCENT DISCREPANCY =           0.00



1
  VOLUMETRIC BUDGET FOR ENTIRE MODEL AT END OF TIME STEP   30, STRESS PERIOD  24
  ------------------------------------------------------------------------------

     CUMULATIVE VOLUMES      L**3       RATES FOR THIS TIME STEP      L**3/T
     ------------------                 ------------------------

           IN:                                      IN:
           ---                                      ---
             STORAGE     =  1183840384.0000               STORAGE     =           8.9627
       CONSTANT HEAD     =           0.0000         CONSTANT HEAD     =           0.0000
     HEAD DEP BOUNDS     =    17292448.0000       HEAD DEP BOUNDS     =           0.2858
      STREAM LEAKAGE     =   754291712.0000        STREAM LEAKAGE     =          11.7156
        UZF RECHARGE     =   147448560.0000          UZF RECHARGE     =       3.0186E-04
               GW ET     =           0.0000                 GW ET     =           0.0000
     SURFACE LEAKAGE     =           0.0000       SURFACE LEAKAGE     =           0.0000
           AG WELLS      =           0.0000             AG WELLS      =           0.0000

                TOTAL IN =  2102873088.0000                  TOTAL IN =          20.9644

          OUT:                                     OUT:
          ----                                     ----
             STORAGE     =   497932160.0000               STORAGE     =          10.2870
       CONSTANT HEAD     =           0.0000         CONSTANT HEAD     =           0.0000
     HEAD DEP BOUNDS     =    17824082.0000       HEAD DEP BOUNDS     =           0.2899
      STREAM LEAKAGE     =   629086592.0000        STREAM LEAKAGE     =          10.3876
        UZF RECHARGE     =           0.0000          UZF RECHARGE     =           0.0000
               GW ET     =    17288296.0000                 GW ET     =           0.0000
     SURFACE LEAKAGE     =           0.0000       SURFACE LEAKAGE     =           0.0000
           AG WELLS      =   940732288.0000             AG WELLS      =           0.0000

               TOTAL OUT =  2102863488.0000                 TOTAL OUT =          20.9644

                IN - OUT =        9600.0000                  IN - OUT =       9.5367E-06

     PERCENT DISCREPANCY =           0.00         PERCENT DISCREPANCY =           0.00






         TIME SUMMARY AT END OF TIME STEP   30 IN STRESS PERIOD   24
                    SECONDS     MINUTES      HOURS       DAYS        YEARS
                    -----------------------------------------------------------
   TIME STEP LENGTH  87667.      1461.1      24.352      1.0147     2.77799E-03
 STRESS PERIOD TIME 2.63000E+06  43833.      730.56      30.440     8.33397E-02
         TOTAL TIME 6.05767E+07 1.00961E+06  16827.      701.12      1.9196    
1
1
                            STRESS PERIOD NO.   25, LENGTH =   2630000.    
                            -----------------------------------------------

                              NUMBER OF TIME STEPS =    30

                               MULTIPLIER FOR DELT =     1.000

                            INITIAL TIME STEP SIZE =   87666.66    

 REUSING NON-PARAMETER GHB CELLS FROM LAST STRESS PERIOD

      2 GHB CELLS

 REUSING STREAM SEGMENT DATA FROM LAST STRESS PERIOD



            AREAL INFILTRATION RATE
 READING ON UNIT   19 WITH FORMAT: (10F4.0)            

            1           2           3           4           5           6           7           8           9          10
 ........................................................................................................................
   1   1.2000E-09   0.000       0.000       0.000       0.000       0.000       0.000       0.000       0.000       0.000    
   2   2.1000E-09  2.0000E-09  8.0000E-10  8.5000E-09   0.000       0.000       0.000       0.000       0.000       0.000    
   3   5.0000E-10  1.1000E-09  8.8000E-09  5.5000E-09   0.000       0.000       0.000       0.000       0.000       0.000    
   4   8.5000E-09  1.1000E-09  1.1000E-09  1.1000E-09  2.0000E-09   0.000       0.000       0.000       0.000       0.000    
   5   8.5000E-09  1.1000E-09  1.1000E-09  1.1000E-09  1.1000E-09   0.000       0.000       0.000       0.000       0.000    
   6   8.5000E-09  5.2000E-09  2.1000E-09  1.1000E-09  1.5000E-09   0.000       0.000       0.000       0.000       0.000    
   7   8.5000E-09  5.2000E-09  2.1000E-09  1.2000E-09  2.0000E-09   0.000       0.000       0.000       0.000       0.000    
   8   5.0000E-10  5.2000E-09  2.1000E-09  1.2000E-09  5.0000E-09   0.000       0.000       0.000       0.000       0.000    
   9   5.0000E-10  5.2000E-09  2.1000E-09  1.2000E-09  5.0000E-09   0.000       0.000       0.000       0.000       0.000    
  10   5.0000E-10  5.2000E-09  2.1000E-09  1.2000E-09  5.8000E-09   0.000       0.000       0.000       0.000       0.000    
  11   1.0000E-10  1.1000E-09  1.1000E-09  1.2000E-09  5.0000E-09   0.000       0.000       0.000       0.000       0.000    
  12   1.1000E-09  1.1000E-09  1.1000E-09  1.1000E-09  2.0000E-09   0.000       0.000       0.000       0.000       0.000    
  13   1.1000E-09  2.2000E-09  2.2000E-09  2.1000E-09  1.0000E-09   0.000       0.000       0.000       0.000       0.000    
  14   2.0000E-10  5.5000E-09  5.5000E-09  5.2000E-09  1.0000E-09   0.000       0.000       0.000       0.000       0.000    
  15    0.000      8.8000E-09  8.8000E-09   0.000       0.000       0.000       0.000       0.000       0.000       0.000    

                  ET RATE =  5.000000E-10

 USING ET EXTINCTION DEPTH FROM PREVIOUS STRESS PERIOD. CURRENT PERIOD IS:      25

 USING EXTINCTION WATER CONTENT FROM PREVIOUS STRESS PERIOD. CURRENT PERIOD IS:      25

 USING AIR ENTRY PRESSURE FROM PREVIOUS STRESS PERIOD. CURRENT PERIOD IS:      25

 USING ROOT PRESSURE HEAD FROM PREVIOUS STRESS PERIOD. CURRENT PERIOD IS:      25

 USING ROOT ACTIVITY FROM PREVIOUS STRESS PERIOD. CURRENT PERIOD IS:      25

 PROCESSING AG STRESS PERIOD DATA

 READING AG STRESS PERIOD DATA

 READING IRRIGATION WELL

 END PROCESSING AG STRESS PERIOD DATA OPTIONS
 
 SOLVING FOR HEAD 
                                                   Max.-Head-Change                         Max.-Flux-Residual
  Residual-Control   Outer-Iter.   Inner-Iter.     Column Row Layer    Maximum-Head-Change  Column Row Layer    Maximum-Flux-Residual          L2-NORM 
          0                 1           2             4    7     1       0.2397287642E-01       4    7    1         0.1258505174E+01      0.3076739055E+01
          0                 2           2             4    7     1      -0.2330655042E-02       4    7    1        -0.1257829357E+00      0.3075588395E+00
          0                 3           2             4    7     1       0.1585893458E-03       4    7    1         0.8798156531E-02      0.2151790769E-01
          0                 4           1             4    7     1      -0.6302507362E-05       4    7    1        -0.3593929464E-03      0.8793283198E-03

    ------------------------------------------------
       NWT REQUIRED            4 OUTER ITERATIONS 
       AND A TOTAL OF          7 INNER ITERATIONS.
    ------------------------------------------------

 NO OUTPUT CONTROL FOR STRESS PERIOD   25   TIME STEP    1
 
 SOLVING FOR HEAD 
                                                   Max.-Head-Change                         Max.-Flux-Residual
  Residual-Control   Outer-Iter.   Inner-Iter.     Column Row Layer    Maximum-Head-Change  Column Row Layer    Maximum-Flux-Residual          L2-NORM 
          0                 1           2             4    7     1       0.2372854337E-01       4    7    1         0.1245588929E+01      0.3050560507E+01
          0                 2           2             4    7     1      -0.2306900657E-02       4    7    1        -0.1244919903E+00      0.3049401005E+00
          0                 3           2             4    7     1       0.1569729753E-03       4    7    1         0.8707858206E-02      0.2133459659E-01
          0                 4           1             4    7     1      -0.6238271227E-05       4    7    1        -0.3557043565E-03      0.8718210997E-03

    ------------------------------------------------
       NWT REQUIRED            4 OUTER ITERATIONS 
       AND A TOTAL OF          7 INNER ITERATIONS.
    ------------------------------------------------

 NO OUTPUT CONTROL FOR STRESS PERIOD   25   TIME STEP    2
 
 SOLVING FOR HEAD 
                                                   Max.-Head-Change                         Max.-Flux-Residual
  Residual-Control   Outer-Iter.   Inner-Iter.     Column Row Layer    Maximum-Head-Change  Column Row Layer    Maximum-Flux-Residual          L2-NORM 
          0                 1           2             4    7     1       0.2348827794E-01       4    7    1         0.1232891305E+01      0.3024104593E+01
          0                 2           2             4    7     1      -0.2283541740E-02       4    7    1        -0.1232228959E+00      0.3022968540E+00
          0                 3           2             4    7     1       0.1553835143E-03       4    7    1         0.8619088321E-02      0.2114973904E-01
          0                 4           1             4    7     1      -0.6175103361E-05       4    7    1        -0.3520781790E-03      0.8642812248E-03

    ------------------------------------------------
       NWT REQUIRED            4 OUTER ITERATIONS 
       AND A TOTAL OF          7 INNER ITERATIONS.
    ------------------------------------------------

 NO OUTPUT CONTROL FOR STRESS PERIOD   25   TIME STEP    3
 
 SOLVING FOR HEAD 
                                                   Max.-Head-Change                         Max.-Flux-Residual
  Residual-Control   Outer-Iter.   Inner-Iter.     Column Row Layer    Maximum-Head-Change  Column Row Layer    Maximum-Flux-Residual          L2-NORM 
          0                 1           2             4    7     1       0.2325207121E-01       4    7    1         0.1220411902E+01      0.2998022422E+01
          0                 2           2             4    7     1      -0.2260577421E-02       4    7    1        -0.1219756126E+00      0.2996900708E+00
          0                 3           2             4    7     1       0.1538209044E-03       4    7    1         0.8531844087E-02      0.2096738057E-01
          0                 4           1             4    7     1      -0.6113003303E-05       4    7    1        -0.3485143311E-03      0.8568238235E-03

    ------------------------------------------------
       NWT REQUIRED            4 OUTER ITERATIONS 
       AND A TOTAL OF          7 INNER ITERATIONS.
    ------------------------------------------------

 NO OUTPUT CONTROL FOR STRESS PERIOD   25   TIME STEP    4
 
 SOLVING FOR HEAD 
                                                   Max.-Head-Change                         Max.-Flux-Residual
  Residual-Control   Outer-Iter.   Inner-Iter.     Column Row Layer    Maximum-Head-Change  Column Row Layer    Maximum-Flux-Residual          L2-NORM 
          0                 1           2             4    7     1       0.2301965296E-01       4    7    1         0.1208135614E+01      0.2972314921E+01
          0                 2           2             4    7     1      -0.2237981429E-02       4    7    1        -0.1207486304E+00      0.2971206616E+00
          0                 3           2             4    7     1       0.1522833575E-03       4    7    1         0.8446019865E-02      0.2078765553E-01
          0                 4           1             4    7     1      -0.6051899329E-05       4    7    1        -0.3450085080E-03      0.8494815762E-03

    ------------------------------------------------
       NWT REQUIRED            4 OUTER ITERATIONS 
       AND A TOTAL OF          7 INNER ITERATIONS.
    ------------------------------------------------

 NO OUTPUT CONTROL FOR STRESS PERIOD   25   TIME STEP    5
 
 SOLVING FOR HEAD 
                                                   Max.-Head-Change                         Max.-Flux-Residual
  Residual-Control   Outer-Iter.   Inner-Iter.     Column Row Layer    Maximum-Head-Change  Column Row Layer    Maximum-Flux-Residual          L2-NORM 
          0                 1           2             4    7     1       0.2279103042E-01       4    7    1         0.1196063072E+01      0.2946965949E+01
          0                 2           2             4    7     1      -0.2215754466E-02       4    7    1        -0.1195420126E+00      0.2945870503E+00
          0                 3           2             4    7     1       0.1507709215E-03       4    7    1         0.8361620104E-02      0.2061042171E-01
          0                 4           1             4    7     1      -0.5991793396E-05       4    7    1        -0.3415608633E-03      0.8422497996E-03

    ------------------------------------------------
       NWT REQUIRED            4 OUTER ITERATIONS 
       AND A TOTAL OF          7 INNER ITERATIONS.
    ------------------------------------------------

 NO OUTPUT CONTROL FOR STRESS PERIOD   25   TIME STEP    6
 
 SOLVING FOR HEAD 
                                                   Max.-Head-Change                         Max.-Flux-Residual
  Residual-Control   Outer-Iter.   Inner-Iter.     Column Row Layer    Maximum-Head-Change  Column Row Layer    Maximum-Flux-Residual          L2-NORM 
          0                 1           2             4    7     1       0.2256608374E-01       4    7    1         0.1184187331E+01      0.2921974603E+01
          0                 2           2             4    7     1      -0.2193884881E-02       4    7    1        -0.1183550649E+00      0.2920892417E+00
          0                 3           2             4    7     1       0.1492828037E-03       4    7    1         0.8278596229E-02      0.2043572124E-01
          0                 4           1             4    7     1      -0.5932653844E-05       4    7    1        -0.3381694366E-03      0.8350977695E-03

    ------------------------------------------------
       NWT REQUIRED            4 OUTER ITERATIONS 
       AND A TOTAL OF          7 INNER ITERATIONS.
    ------------------------------------------------

 NO OUTPUT CONTROL FOR STRESS PERIOD   25   TIME STEP    7
 
 SOLVING FOR HEAD 
                                                   Max.-Head-Change                         Max.-Flux-Residual
  Residual-Control   Outer-Iter.   Inner-Iter.     Column Row Layer    Maximum-Head-Change  Column Row Layer    Maximum-Flux-Residual          L2-NORM 
          0                 1           2             4    7     1       0.2234455743E-01       4    7    1         0.1172494855E+01      0.2897322880E+01
          0                 2           2             4    7     1      -0.2172347834E-02       4    7    1        -0.1171864343E+00      0.2896253034E+00
          0                 3           2             4    7     1       0.1478173136E-03       4    7    1         0.8196853613E-02      0.2026334632E-01
          0                 4           1             4    7     1      -0.5874413554E-05       4    7    1        -0.3348303330E-03      0.8280480519E-03

    ------------------------------------------------
       NWT REQUIRED            4 OUTER ITERATIONS 
       AND A TOTAL OF          7 INNER ITERATIONS.
    ------------------------------------------------

 NO OUTPUT CONTROL FOR STRESS PERIOD   25   TIME STEP    8
 
 SOLVING FOR HEAD 
                                                   Max.-Head-Change                         Max.-Flux-Residual
  Residual-Control   Outer-Iter.   Inner-Iter.     Column Row Layer    Maximum-Head-Change  Column Row Layer    Maximum-Flux-Residual          L2-NORM 
          0                 1           2             4    7     1       0.2212648387E-01       4    7    1         0.1160987040E+01      0.2873014956E+01
          0                 2           2             4    7     1      -0.2151146472E-02       4    7    1        -0.1160362605E+00      0.2871957111E+00
          0                 3           2             4    7     1       0.1463746654E-03       4    7    1         0.8116401992E-02      0.2009339628E-01
          0                 4           1             4    7     1      -0.5817081276E-05       4    7    1        -0.3315439824E-03      0.8211402218E-03

    ------------------------------------------------
       NWT REQUIRED            4 OUTER ITERATIONS 
       AND A TOTAL OF          7 INNER ITERATIONS.
    ------------------------------------------------

 NO OUTPUT CONTROL FOR STRESS PERIOD   25   TIME STEP    9
 
 SOLVING FOR HEAD 
                                                   Max.-Head-Change                         Max.-Flux-Residual
  Residual-Control   Outer-Iter.   Inner-Iter.     Column Row Layer    Maximum-Head-Change  Column Row Layer    Maximum-Flux-Residual          L2-NORM 
          0                 1           2             4    7     1       0.2191162458E-01       4    7    1         0.1149650921E+01      0.2849037039E+01
          0                 2           2             4    7     1      -0.2130257609E-02       4    7    1        -0.1149032474E+00      0.2847990939E+00
          0                 3           2             4    7     1       0.1449532811E-03       4    7    1         0.8037150728E-02      0.1992576794E-01
          0                 4           1             4    7     1      -0.5760593228E-05       4    7    1        -0.3283066414E-03      0.8142783816E-03

    ------------------------------------------------
       NWT REQUIRED            4 OUTER ITERATIONS 
       AND A TOTAL OF          7 INNER ITERATIONS.
    ------------------------------------------------

 NO OUTPUT CONTROL FOR STRESS PERIOD   25   TIME STEP   10
 
 SOLVING FOR HEAD 
                                                   Max.-Head-Change                         Max.-Flux-Residual
  Residual-Control   Outer-Iter.   Inner-Iter.     Column Row Layer    Maximum-Head-Change  Column Row Layer    Maximum-Flux-Residual          L2-NORM 
          0                 1           2             4    7     1       0.2170015586E-01       4    7    1         0.1138496104E+01      0.2825385516E+01
          0                 2           2             4    7     1      -0.2109698386E-02       4    7    1        -0.1137883552E+00      0.2824351066E+00
          0                 3           2             4    7     1       0.1435543274E-03       4    7    1         0.7959167001E-02      0.1976040013E-01
          0                 4           1             4    7     1      -0.5704997189E-05       4    7    1        -0.3251210815E-03      0.8075265191E-03

    ------------------------------------------------
       NWT REQUIRED            4 OUTER ITERATIONS 
       AND A TOTAL OF          7 INNER ITERATIONS.
    ------------------------------------------------

 NO OUTPUT CONTROL FOR STRESS PERIOD   25   TIME STEP   11
 
 SOLVING FOR HEAD 
                                                   Max.-Head-Change                         Max.-Flux-Residual
  Residual-Control   Outer-Iter.   Inner-Iter.     Column Row Layer    Maximum-Head-Change  Column Row Layer    Maximum-Flux-Residual          L2-NORM 
          0                 1           2             4    7     1       0.2149170465E-01       4    7    1         0.1127502432E+01      0.2802043827E+01
          0                 2           2             4    7     1      -0.2089432532E-02       4    7    1        -0.1126895694E+00      0.2801020332E+00
          0                 3           2             4    7     1       0.1421753361E-03       4    7    1         0.7882309857E-02      0.1959716209E-01
          0                 4           1             4    7     1      -0.5650194494E-05       4    7    1        -0.3219815553E-03      0.8008308801E-03

    ------------------------------------------------
       NWT REQUIRED            4 OUTER ITERATIONS 
       AND A TOTAL OF          7 INNER ITERATIONS.
    ------------------------------------------------

 NO OUTPUT CONTROL FOR STRESS PERIOD   25   TIME STEP   12
 
 SOLVING FOR HEAD 
                                                   Max.-Head-Change                         Max.-Flux-Residual
  Residual-Control   Outer-Iter.   Inner-Iter.     Column Row Layer    Maximum-Head-Change  Column Row Layer    Maximum-Flux-Residual          L2-NORM 
          0                 1           2             4    7     1       0.2128632812E-01       4    7    1         0.1116672537E+01      0.2779020173E+01
          0                 2           2             4    7     1      -0.2069465606E-02       4    7    1        -0.1116071528E+00      0.2778007724E+00
          0                 3           2             4    7     1       0.1408166860E-03       4    7    1         0.7806597727E-02      0.1943618682E-01
          0                 4           1             4    7     1      -0.5596200455E-05       4    7    1        -0.3188888115E-03      0.7942681910E-03

    ------------------------------------------------
       NWT REQUIRED            4 OUTER ITERATIONS 
       AND A TOTAL OF          7 INNER ITERATIONS.
    ------------------------------------------------

 NO OUTPUT CONTROL FOR STRESS PERIOD   25   TIME STEP   13
 
 SOLVING FOR HEAD 
                                                   Max.-Head-Change                         Max.-Flux-Residual
  Residual-Control   Outer-Iter.   Inner-Iter.     Column Row Layer    Maximum-Head-Change  Column Row Layer    Maximum-Flux-Residual          L2-NORM 
          0                 1           2             4    7     1       0.2108393575E-01       4    7    1         0.1106002059E+01      0.2756299641E+01
          0                 2           2             4    7     1      -0.2049788808E-02       4    7    1        -0.1105406698E+00      0.2755297815E+00
          0                 3           2             4    7     1       0.1394777770E-03       4    7    1         0.7732000108E-02      0.1927732682E-01
          0                 4           1             4    7     1      -0.5542990090E-05       4    7    1        -0.3158415532E-03      0.7877716617E-03

    ------------------------------------------------
       NWT REQUIRED            4 OUTER ITERATIONS 
       AND A TOTAL OF          7 INNER ITERATIONS.
    ------------------------------------------------

 NO OUTPUT CONTROL FOR STRESS PERIOD   25   TIME STEP   14
 
 SOLVING FOR HEAD 
                                                   Max.-Head-Change                         Max.-Flux-Residual
  Residual-Control   Outer-Iter.   Inner-Iter.     Column Row Layer    Maximum-Head-Change  Column Row Layer    Maximum-Flux-Residual          L2-NORM 
          0                 1           2             4    7     1       0.2088445122E-01       4    7    1         0.1095486304E+01      0.2733883291E+01
          0                 2           2             4    7     1      -0.2030394715E-02       4    7    1        -0.1094896511E+00      0.2732892153E+00
          0                 3           2             4    7     1       0.1381581054E-03       4    7    1         0.7658484170E-02      0.1912060641E-01
          0                 4           1             4    7     1      -0.5490545208E-05       4    7    1        -0.3128385376E-03      0.7813861152E-03

    ------------------------------------------------
       NWT REQUIRED            4 OUTER ITERATIONS 
       AND A TOTAL OF          7 INNER ITERATIONS.
    ------------------------------------------------

 NO OUTPUT CONTROL FOR STRESS PERIOD   25   TIME STEP   15
 
 SOLVING FOR HEAD 
                                                   Max.-Head-Change                         Max.-Flux-Residual
  Residual-Control   Outer-Iter.   Inner-Iter.     Column Row Layer    Maximum-Head-Change  Column Row Layer    Maximum-Flux-Residual          L2-NORM 
          0                 1           2             4    7     1       0.2068779731E-01       4    7    1         0.1085121315E+01      0.2711761324E+01
          0                 2           2             4    7     1      -0.2011275822E-02       4    7    1        -0.1084537012E+00      0.2710780410E+00
          0                 3           2             4    7     1       0.1368571596E-03       4    7    1         0.7586022271E-02      0.1896590715E-01
          0                 4           1             4    7     1      -0.5438844051E-05       4    7    1        -0.3098785387E-03      0.7750453025E-03

    ------------------------------------------------
       NWT REQUIRED            4 OUTER ITERATIONS 
       AND A TOTAL OF          7 INNER ITERATIONS.
    ------------------------------------------------

 NO OUTPUT CONTROL FOR STRESS PERIOD   25   TIME STEP   16
 
 SOLVING FOR HEAD 
                                                   Max.-Head-Change                         Max.-Flux-Residual
  Residual-Control   Outer-Iter.   Inner-Iter.     Column Row Layer    Maximum-Head-Change  Column Row Layer    Maximum-Flux-Residual          L2-NORM 
          0                 1           2             4    7     1       0.2049389972E-01       4    7    1         0.1074903088E+01      0.2689922463E+01
          0                 2           2             4    7     1      -0.1992424834E-02       4    7    1        -0.1074324200E+00      0.2688964671E+00
          0                 3           2             4    7     1       0.1355743754E-03       4    7    1         0.7514586417E-02      0.1880871613E-01
          0                 4           1             4    7     1      -0.5387864398E-05       4    7    1        -0.3069604595E-03      0.7686394593E-03

    ------------------------------------------------
       NWT REQUIRED            4 OUTER ITERATIONS 
       AND A TOTAL OF          7 INNER ITERATIONS.
    ------------------------------------------------

 NO OUTPUT CONTROL FOR STRESS PERIOD   25   TIME STEP   17
 
 SOLVING FOR HEAD 
                                                   Max.-Head-Change                         Max.-Flux-Residual
  Residual-Control   Outer-Iter.   Inner-Iter.     Column Row Layer    Maximum-Head-Change  Column Row Layer    Maximum-Flux-Residual          L2-NORM 
          0                 1           2             4    7     1       0.2030282334E-01       4    7    1         0.1064835098E+01      0.2668374346E+01
          0                 2           2             4    7     1      -0.1973849105E-02       4    7    1        -0.1064261547E+00      0.2667974592E+00
          0                 3           2             4    7     1       0.1343104577E-03       4    7    1         0.7444200892E-02      0.1866645655E-01
          0                 4           1             4    7     1      -0.5337635032E-05       4    7    1        -0.3040852964E-03      0.7628074252E-03

    ------------------------------------------------
       NWT REQUIRED            4 OUTER ITERATIONS 
       AND A TOTAL OF          7 INNER ITERATIONS.
    ------------------------------------------------

 NO OUTPUT CONTROL FOR STRESS PERIOD   25   TIME STEP   18
 
 SOLVING FOR HEAD 
                                                   Max.-Head-Change                         Max.-Flux-Residual
  Residual-Control   Outer-Iter.   Inner-Iter.     Column Row Layer    Maximum-Head-Change  Column Row Layer    Maximum-Flux-Residual          L2-NORM 
          0                 1           2             4    7     1       0.2011422399E-01       4    7    1         0.1054898685E+01      0.2647049432E+01
          0                 2           2             4    7     1      -0.1955512459E-02       4    7    1        -0.1054330403E+00      0.2646098211E+00
          0                 3           2             4    7     1       0.1330627401E-03       4    7    1         0.7374735239E-02      0.1851342667E-01
          0                 4           1             4    7     1      -0.5288049229E-05       4    7    1        -0.3012477021E-03      0.7565674577E-03

    ------------------------------------------------
       NWT REQUIRED            4 OUTER ITERATIONS 
       AND A TOTAL OF          7 INNER ITERATIONS.
    ------------------------------------------------

 NO OUTPUT CONTROL FOR STRESS PERIOD   25   TIME STEP   19
 
 SOLVING FOR HEAD 
                                                   Max.-Head-Change                         Max.-Flux-Residual
  Residual-Control   Outer-Iter.   Inner-Iter.     Column Row Layer    Maximum-Head-Change  Column Row Layer    Maximum-Flux-Residual          L2-NORM 
          0                 1           2             4    7     1       0.1992831442E-01       4    7    1         0.1045105443E+01      0.2626001487E+01
          0                 2           2             4    7     1      -0.1937438154E-02       4    7    1        -0.1044542357E+00      0.2625059688E+00
          0                 3           2             4    7     1       0.1318328738E-03       4    7    1         0.7306270528E-02      0.1836623736E-01
          0                 4           1             4    7     1      -0.5239173188E-05       4    7    1        -0.2984509970E-03      0.7505689812E-03

    ------------------------------------------------
       NWT REQUIRED            4 OUTER ITERATIONS 
       AND A TOTAL OF          7 INNER ITERATIONS.
    ------------------------------------------------

 NO OUTPUT CONTROL FOR STRESS PERIOD   25   TIME STEP   20
 
 SOLVING FOR HEAD 
                                                   Max.-Head-Change                         Max.-Flux-Residual
  Residual-Control   Outer-Iter.   Inner-Iter.     Column Row Layer    Maximum-Head-Change  Column Row Layer    Maximum-Flux-Residual          L2-NORM 
          0                 1           2             4    7     1       0.1974489417E-01       4    7    1         0.1035444290E+01      0.2605217612E+01
          0                 2           2             4    7     1      -0.1919605864E-02       4    7    1        -0.1034886331E+00      0.2604285296E+00
          0                 3           2             4    7     1       0.1306194750E-03       4    7    1         0.7238729248E-02      0.1822092165E-01
          0                 4           1             4    7     1      -0.5190951302E-05       4    7    1        -0.2956920116E-03      0.7446080215E-03

    ------------------------------------------------
       NWT REQUIRED            4 OUTER ITERATIONS 
       AND A TOTAL OF          7 INNER ITERATIONS.
    ------------------------------------------------

 NO OUTPUT CONTROL FOR STRESS PERIOD   25   TIME STEP   21
 
 SOLVING FOR HEAD 
                                                   Max.-Head-Change                         Max.-Flux-Residual
  Residual-Control   Outer-Iter.   Inner-Iter.     Column Row Layer    Maximum-Head-Change  Column Row Layer    Maximum-Flux-Residual          L2-NORM 
          0                 1           2             4    7     1       0.1956390506E-01       4    7    1         0.1025912204E+01      0.2584703903E+01
          0                 2           2             4    7     1      -0.1902009935E-02       4    7    1        -0.1025359305E+00      0.2583780760E+00
          0                 3           2             4    7     1       0.1294221599E-03       4    7    1         0.7172090292E-02      0.1807748659E-01
          0                 4           1             4    7     1      -0.5143368604E-05       4    7    1        -0.2929698967E-03      0.7387770621E-03

    ------------------------------------------------
       NWT REQUIRED            4 OUTER ITERATIONS 
       AND A TOTAL OF          7 INNER ITERATIONS.
    ------------------------------------------------

 NO OUTPUT CONTROL FOR STRESS PERIOD   25   TIME STEP   22
 
 SOLVING FOR HEAD 
                                                   Max.-Head-Change                         Max.-Flux-Residual
  Residual-Control   Outer-Iter.   Inner-Iter.     Column Row Layer    Maximum-Head-Change  Column Row Layer    Maximum-Flux-Residual          L2-NORM 
          0                 1           2             4    7     1       0.1938529214E-01       4    7    1         0.1016506167E+01      0.2564451682E+01
          0                 2           2             4    7     1      -0.1884645024E-02       4    7    1        -0.1015958263E+00      0.2563537444E+00
          0                 3           2             4    7     1       0.1282405646E-03       4    7    1         0.7106332596E-02      0.1793583995E-01
          0                 4           1             4    7     1      -0.5096410589E-05       4    7    1        -0.2902837730E-03      0.7329650219E-03

    ------------------------------------------------
       NWT REQUIRED            4 OUTER ITERATIONS 
       AND A TOTAL OF          7 INNER ITERATIONS.
    ------------------------------------------------

 NO OUTPUT CONTROL FOR STRESS PERIOD   25   TIME STEP   23
 
 SOLVING FOR HEAD 
                                                   Max.-Head-Change                         Max.-Flux-Residual
  Residual-Control   Outer-Iter.   Inner-Iter.     Column Row Layer    Maximum-Head-Change  Column Row Layer    Maximum-Flux-Residual          L2-NORM 
          0                 1           2             4    7     1       0.1920913501E-01       4    7    1         0.1007230660E+01      0.2544451312E+01
          0                 2           2             4    7     1      -0.1867535877E-02       4    7    1        -0.1006687683E+00      0.2543806998E+00
          0                 3           2             4    7     1       0.1270763722E-03       4    7    1         0.7041487373E-02      0.1779783711E-01
          0                 4           1             4    7     1      -0.5050144605E-05       4    7    1        -0.2876349211E-03      0.7273242841E-03

    ------------------------------------------------
       NWT REQUIRED            4 OUTER ITERATIONS 
       AND A TOTAL OF          7 INNER ITERATIONS.
    ------------------------------------------------

 NO OUTPUT CONTROL FOR STRESS PERIOD   25   TIME STEP   24
 
 SOLVING FOR HEAD 
                                                   Max.-Head-Change                         Max.-Flux-Residual
  Residual-Control   Outer-Iter.   Inner-Iter.     Column Row Layer    Maximum-Head-Change  Column Row Layer    Maximum-Flux-Residual          L2-NORM 
          0                 1           2             4    7     1       0.1903514092E-01       4    7    1         0.9980742454E+00      0.2524691032E+01
          0                 2           2             4    7     1      -0.1850603034E-02       4    7    1        -0.9975361390E-01      0.2523794889E+00
          0                 3           2             4    7     1       0.1259241780E-03       4    7    1         0.6977474908E-02      0.1765784088E-01
          0                 4           1             4    7     1      -0.5004354905E-05       4    7    1        -0.2850200879E-03      0.7216200477E-03

    ------------------------------------------------
       NWT REQUIRED            4 OUTER ITERATIONS 
       AND A TOTAL OF          7 INNER ITERATIONS.
    ------------------------------------------------

 NO OUTPUT CONTROL FOR STRESS PERIOD   25   TIME STEP   25
 
 SOLVING FOR HEAD 
                                                   Max.-Head-Change                         Max.-Flux-Residual
  Residual-Control   Outer-Iter.   Inner-Iter.     Column Row Layer    Maximum-Head-Change  Column Row Layer    Maximum-Flux-Residual          L2-NORM 
          0                 1           2             4    7     1       0.1886332106E-01       4    7    1         0.9890317927E+00      0.2505119876E+01
          0                 2           2             4    7     1      -0.1833898561E-02       4    7    1        -0.9884984957E-01      0.2504232283E+00
          0                 3           2             4    7     1       0.1247875223E-03       4    7    1         0.6914259087E-02      0.1752097463E-01
          0                 4           1             4    7     1      -0.4959183094E-05       4    7    1        -0.2824377959E-03      0.7160150716E-03

    ------------------------------------------------
       NWT REQUIRED            4 OUTER ITERATIONS 
       AND A TOTAL OF          7 INNER ITERATIONS.
    ------------------------------------------------

 NO OUTPUT CONTROL FOR STRESS PERIOD   25   TIME STEP   26
 
 SOLVING FOR HEAD 
                                                   Max.-Head-Change                         Max.-Flux-Residual
  Residual-Control   Outer-Iter.   Inner-Iter.     Column Row Layer    Maximum-Head-Change  Column Row Layer    Maximum-Flux-Residual          L2-NORM 
          0                 1           2             4    7     1       0.1869375503E-01       4    7    1         0.9801084930E+00      0.2485799613E+01
          0                 2           2             4    7     1      -0.1817413208E-02       4    7    1        -0.9795799434E-01      0.2484920705E+00
          0                 3           2             4    7     1       0.1236657768E-03       4    7    1         0.6851876283E-02      0.1738588717E-01
          0                 4           1             4    7     1      -0.4914603615E-05       4    7    1        -0.2798895289E-03      0.7104778842E-03

    ------------------------------------------------
       NWT REQUIRED            4 OUTER ITERATIONS 
       AND A TOTAL OF          7 INNER ITERATIONS.
    ------------------------------------------------

 NO OUTPUT CONTROL FOR STRESS PERIOD   25   TIME STEP   27
 
 SOLVING FOR HEAD 
                                                   Max.-Head-Change                         Max.-Flux-Residual
  Residual-Control   Outer-Iter.   Inner-Iter.     Column Row Layer    Maximum-Head-Change  Column Row Layer    Maximum-Flux-Residual          L2-NORM 
          0                 1           2             4    7     1       0.1852639937E-01       4    7    1         0.9713020504E+00      0.2466727134E+01
          0                 2           2             4    7     1      -0.1801142752E-02       4    7    1        -0.9707781867E-01      0.2465856824E+00
          0                 3           2             4    7     1       0.1225586540E-03       4    7    1         0.6790310442E-02      0.1725254522E-01
          0                 4           1             4    7     1      -0.4870605185E-05       4    7    1        -0.2773746439E-03      0.7050560762E-03

    ------------------------------------------------
       NWT REQUIRED            4 OUTER ITERATIONS 
       AND A TOTAL OF          7 INNER ITERATIONS.
    ------------------------------------------------

 NO OUTPUT CONTROL FOR STRESS PERIOD   25   TIME STEP   28
 
 SOLVING FOR HEAD 
                                                   Max.-Head-Change                         Max.-Flux-Residual
  Residual-Control   Outer-Iter.   Inner-Iter.     Column Row Layer    Maximum-Head-Change  Column Row Layer    Maximum-Flux-Residual          L2-NORM 
          0                 1           2             4    7     1       0.1836107555E-01       4    7    1         0.9626028824E+00      0.2447886938E+01
          0                 2           2             4    7     1      -0.1785069834E-02       4    7    1        -0.9620836488E-01      0.2447024842E+00
          0                 3           2             4    7     1       0.1214649726E-03       4    7    1         0.6729494564E-02      0.1712078801E-01
          0                 4           1             4    7     1      -0.4827140947E-05       4    7    1        -0.2748903867E-03      0.6997077130E-03

    ------------------------------------------------
       NWT REQUIRED            4 OUTER ITERATIONS 
       AND A TOTAL OF          7 INNER ITERATIONS.
    ------------------------------------------------

 NO OUTPUT CONTROL FOR STRESS PERIOD   25   TIME STEP   29
 
 SOLVING FOR HEAD 
                                                   Max.-Head-Change                         Max.-Flux-Residual
  Residual-Control   Outer-Iter.   Inner-Iter.     Column Row Layer    Maximum-Head-Change  Column Row Layer    Maximum-Flux-Residual          L2-NORM 
          0                 1           2             4    7     1       0.1819773724E-01       4    7    1         0.9540090608E+00      0.2433301287E+01
          0                 2           2             4    7     1      -0.1769189950E-02       4    7    1        -0.9534944025E-01      0.2432354604E+00
          0                 3           2             4    7     1       0.1203844263E-03       4    7    1         0.6669415152E-02      0.1701730513E-01
          0                 4           1             4    7     1      -0.4784199273E-05       4    7    1        -0.2724362380E-03      0.6953887173E-03

    ------------------------------------------------
       NWT REQUIRED            4 OUTER ITERATIONS 
       AND A TOTAL OF          7 INNER ITERATIONS.
    ------------------------------------------------

 NO OUTPUT CONTROL FOR STRESS PERIOD   25   TIME STEP   30



 STREAM LISTING     PERIOD     25   STEP       30

 LAYER ROW COL. STREAM  RCH.  FLOW INTO     FLOW TO   FLOW OUT OF   OVRLND.     DIRECT     STREAM       STREAM     STREAM     STREAM   STREAMBED  STREAMBED
                SEG.NO.  NO.  STRM. RCH.    AQUIFER    STRM. RCH.    RUNOFF     PRECIP       ET          HEAD       DEPTH      WIDTH   CONDCTNC.   GRADIENT

   1    1    1     1     1    1.8461E+01  2.1075E-01   1.8250E+01  0.000E+00  0.000E+00  0.000E+00  1.09412E+03  1.073E+00  1.150E+01  5.174E-02  1.358E+00
   1    2    2     1     2    1.8250E+01  3.2508E-01   1.7925E+01  0.000E+00  0.000E+00  0.000E+00  1.08913E+03  1.068E+00  1.141E+01  7.990E-02  1.356E+00
   1    3    3     1     3    1.7925E+01  2.7598E-01   1.7649E+01  0.000E+00  0.000E+00  0.000E+00  1.08348E+03  1.063E+00  1.132E+01  6.792E-02  1.354E+00
   1    3    4     1     4    1.7649E+01  2.5310E-01   1.7396E+01  0.000E+00  0.000E+00  0.000E+00  1.07847E+03  1.059E+00  1.124E+01  6.236E-02  1.353E+00
   1    4    5     2     1    1.5396E+01  3.0400E-01   1.5092E+01  0.000E+00  0.000E+00  0.000E+00  1.07283E+03  8.974E-01  1.200E+01  7.800E-02  1.299E+00
   1    5    6     2     2    1.5092E+01  2.3327E-01   1.4859E+01  0.000E+00  0.000E+00  0.000E+00  1.06740E+03  8.879E-01  1.200E+01  6.000E-02  1.296E+00
   1    6    6     2     3    1.4859E+01  2.3278E-01   1.4626E+01  0.000E+00  0.000E+00  0.000E+00  1.06267E+03  8.796E-01  1.200E+01  6.000E-02  1.293E+00
   1    7    6     2     4    1.4626E+01  2.3227E-01   1.4394E+01  0.000E+00  0.000E+00  0.000E+00  1.05795E+03  8.712E-01  1.200E+01  6.000E-02  1.290E+00
   1    8    6     2     5    1.4394E+01  2.3177E-01   1.4162E+01  0.000E+00  0.000E+00  0.000E+00  1.05322E+03  8.629E-01  1.200E+01  6.000E-02  1.288E+00
   1    3    5     3     1    2.0000E+00  2.8252E-01   1.7175E+00  0.000E+00  0.000E+00  0.000E+00  1.07555E+03  1.909E+00  9.636E+00  7.227E-02  1.955E+00
   1    3    6     3     2    1.7175E+00  2.4905E-01   1.4684E+00  0.000E+00  0.000E+00  0.000E+00  1.07264E+03  1.727E+00  8.909E+00  6.682E-02  1.864E+00
   1    3    7     3     3    1.4684E+00  1.9718E-01   1.2712E+00  0.000E+00  0.000E+00  0.000E+00  1.06987E+03  1.555E+00  8.218E+00  5.547E-02  1.777E+00
   1    4    8     3     4    1.2712E+00  2.2567E-01   1.0456E+00  0.000E+00  0.000E+00  0.000E+00  1.06682E+03  1.364E+00  7.455E+00  6.709E-02  1.682E+00
   1    5    8     3     5    1.0456E+00  1.5790E-01   8.8768E-01  0.000E+00  0.000E+00  0.000E+00  1.06362E+03  1.164E+00  6.655E+00  4.991E-02  1.582E+00
   1    6    8     3     6    8.8768E-01  5.5980E-02   8.3170E-01  0.000E+00  0.000E+00  0.000E+00  1.06158E+03  1.036E+00  6.145E+00  1.844E-02  1.518E+00
   1    5   10     4     1    1.0000E+01  9.0919E-02   9.9091E+00  0.000E+00  0.000E+00  0.000E+00  1.07836E+03  6.368E-01  1.000E+01  2.500E-02  1.212E+00
   1    5    9     4     2    9.9091E+00  1.8158E-01   9.7275E+00  0.000E+00  0.000E+00  0.000E+00  1.07154E+03  6.315E-01  1.000E+01  5.000E-02  1.211E+00
   1    6    8     4     3    9.7275E+00  1.2689E-01   9.6006E+00  0.000E+00  0.000E+00  0.000E+00  1.06381E+03  6.256E-01  1.000E+01  3.500E-02  1.209E+00
   1    6    8     5     1    1.0432E+01  2.2686E-01   1.0205E+01  0.000E+00  0.000E+00  0.000E+00  1.05868E+03  6.790E-01  1.542E+01  6.166E-02  1.226E+00
   1    7    7     5     2    1.0205E+01  2.7894E-01   9.9265E+00  0.000E+00  0.000E+00  0.000E+00  1.05417E+03  6.732E-01  1.519E+01  7.594E-02  1.224E+00
   1    8    7     5     3    9.9265E+00  1.9221E-01   9.7343E+00  0.000E+00  0.000E+00  0.000E+00  1.04992E+03  6.676E-01  1.497E+01  5.241E-02  1.223E+00
   1    8    6     5     4    9.7343E+00  1.3577E-01   9.5985E+00  0.000E+00  0.000E+00  0.000E+00  1.04691E+03  6.637E-01  1.482E+01  3.706E-02  1.221E+00
   1    9    6     6     1    2.3760E+01  2.5084E-01   2.3510E+01  0.000E+00  0.000E+00  0.000E+00  1.04391E+03  1.181E+00  1.200E+01  6.000E-02  1.394E+00
   1   10    7     6     2    2.3510E+01  2.5038E-01   2.3259E+01  0.000E+00  0.000E+00  0.000E+00  1.03935E+03  1.173E+00  1.200E+01  6.000E-02  1.391E+00
   1   11    7     6     3    2.3259E+01  2.4993E-01   2.3009E+01  0.000E+00  0.000E+00  0.000E+00  1.03480E+03  1.166E+00  1.200E+01  6.000E-02  1.389E+00
   1   12    7     6     4    2.3009E+01  2.4948E-01   2.2760E+01  0.000E+00  0.000E+00  0.000E+00  1.03025E+03  1.158E+00  1.200E+01  6.000E-02  1.386E+00
   1   13    7     6     5    2.2760E+01  2.5052E-03   2.2757E+01  0.000E+00  0.000E+00  0.000E+00  1.02706E+03  1.154E+00  1.200E+01  2.400E-02  3.479E-02
   1   14    9     7     1    1.5000E+02  1.3378E+00   1.4866E+02  0.000E+00  0.000E+00  0.000E+00  1.03987E+03  2.288E+00  5.529E+01  5.593E-01  7.973E-01
   1   13    8     7     2    1.4866E+02  1.8579E+00   1.4680E+02  0.000E+00  0.000E+00  0.000E+00  1.03478E+03  2.279E+00  5.526E+01  6.148E-01  1.007E+00
   1   13    7     7     3    1.4680E+02  1.5249E+00   1.4528E+02  0.000E+00  0.000E+00  0.000E+00  1.02969E+03  2.270E+00  5.522E+01  5.584E-01  9.102E-01
   1   13    6     8     1    1.6804E+02  9.7327E-01   1.6706E+02  0.000E+00  0.000E+00  0.000E+00  1.02481E+03  2.936E+00  4.257E+01  4.338E-01  7.478E-01
   1   13    5     8     2    1.6706E+02  2.3486E-01   1.6683E+02  0.000E+00  0.000E+00  0.000E+00  1.01856E+03  2.932E+00  4.252E+01  4.333E-01  1.807E-01
   1   13    4     8     3    1.6683E+02 -2.2324E+00   1.6906E+02  0.000E+00  0.000E+00  0.000E+00  1.01231E+03  2.939E+00  4.261E+01  4.342E+00 -1.714E-01
   1   13    3     8     4    1.6906E+02 -3.5783E+00   1.7264E+02  0.000E+00  0.000E+00  0.000E+00  1.00608E+03  2.958E+00  4.289E+01  4.370E+00 -2.729E-01
   1   13    2     8     5    1.7264E+02 -2.5917E+00   1.7523E+02  0.000E+00  0.000E+00  0.000E+00  9.99853E+02  2.978E+00  4.318E+01  4.400E+00 -1.963E-01
   1   13    1     8     6    1.7523E+02 -2.0006E+00   1.7723E+02  0.000E+00  0.000E+00  0.000E+00  9.94867E+02  2.992E+00  4.339E+01  2.653E+00 -2.514E-01





UNSATURATED ZONE PACKAGE VOLUMETRIC BUDGET FOR  TIME STEP    30 STRESS PERIOD   25
  ------------------------------------------------------------------------------



     CUMULATIVE VOLUMES      L**3       RATES FOR THIS TIME STEP      L**3/T
     ------------------                 ------------------------

           IN:                                      IN:
           ---                                      ---
        INFILTRATION =  1219008644.4172          INFILTRATION =           4.4075

          OUT:                                     OUT:
          ----                                     ----
              UZF ET =   999904863.0056                UZF ET =           0.7250
        UZF RECHARGE =   147449258.3446          UZF RECHARGE =           0.0002

            IN - OUT =    71654523.0670              IN - OUT =           3.6823

          STORAGE:                                 STORAGE:
          --------                                 --------
      STORAGE CHANGE =    71656027.2810        STORAGE CHANGE =           3.6823

 PERCENT DISCREPANCY IS DIFFERENCE BETWEEN IN-OUT MINUS CHANGE IN STORAGE
 DIVIDED BY THE AVERAGE OF IN AND OUT TIMES 100

 PERCENT DISCREPANCY =          -0.00     PERCENT DISCREPANCY =           0.00






1
  VOLUMETRIC BUDGET FOR AGRICULTURAL FIELDS AT TIME STEP   30, STRESS PERIOD  25
  ------------------------------------------------------------------------------

     CUMULATIVE VOLUMES      L**3       RATES FOR THIS TIME STEP      L**3/T
     ------------------                 ------------------------

           IN:                                      IN:
           ---                                      ---
               AG WELLS  =   940732288.0000                 AG WELLS  =           0.0000
      DIVERSION SEGMENTS =           0.0000        DIVERSION SEGMENTS =           0.0000
           GW IRRIGATION =           0.0000             GW IRRIGATION =           0.0000
           SW IRRIGATION =           0.0000             SW IRRIGATION =           0.0000
        SYSTEM LOSSES GW =           0.0000          SYSTEM LOSSES GW =           0.0000
        SYSTEM LOSSES SW =           0.0000          SYSTEM LOSSES SW =           0.0000

                TOTAL IN =   940732288.0000                  TOTAL IN =           0.0000

          OUT:                                     OUT:
          ----                                     ----
               AG WELLS  =           0.0000                 AG WELLS  =           0.0000
      DIVERSION SEGMENTS =           0.0000        DIVERSION SEGMENTS =           0.0000
           GW IRRIGATION =   940732288.0000             GW IRRIGATION =           0.0000
           SW IRRIGATION =           0.0000             SW IRRIGATION =           0.0000
        SYSTEM LOSSES GW =           0.0000          SYSTEM LOSSES GW =           0.0000
        SYSTEM LOSSES SW =           0.0000          SYSTEM LOSSES SW =           0.0000

               TOTAL OUT =   940732288.0000                 TOTAL OUT =           0.0000

                IN - OUT =           0.0000                  IN - OUT =           0.0000

     PERCENT DISCREPANCY =           0.00         PERCENT DISCREPANCY =           0.00



1
  VOLUMETRIC BUDGET FOR ENTIRE MODEL AT END OF TIME STEP   30, STRESS PERIOD  25
  ------------------------------------------------------------------------------

     CUMULATIVE VOLUMES      L**3       RATES FOR THIS TIME STEP      L**3/T
     ------------------                 ------------------------

           IN:                                      IN:
           ---                                      ---
             STORAGE     =  1204872704.0000               STORAGE     =           7.2924
       CONSTANT HEAD     =           0.0000         CONSTANT HEAD     =           0.0000
     HEAD DEP BOUNDS     =    18044240.0000       HEAD DEP BOUNDS     =           0.2859
      STREAM LEAKAGE     =   785038016.0000        STREAM LEAKAGE     =          11.6323
        UZF RECHARGE     =   147449200.0000          UZF RECHARGE     =       2.3174E-04
               GW ET     =           0.0000                 GW ET     =           0.0000
     SURFACE LEAKAGE     =           0.0000       SURFACE LEAKAGE     =           0.0000
           AG WELLS      =           0.0000             AG WELLS      =           0.0000

                TOTAL IN =  2155404032.0000                  TOTAL IN =          19.2108

          OUT:                                     OUT:
          ----                                     ----
             STORAGE     =   522434016.0000               STORAGE     =           8.5182
       CONSTANT HEAD     =           0.0000         CONSTANT HEAD     =           0.0000
     HEAD DEP BOUNDS     =    18586056.0000       HEAD DEP BOUNDS     =           0.2896
      STREAM LEAKAGE     =   656353408.0000        STREAM LEAKAGE     =          10.4030
        UZF RECHARGE     =           0.0000          UZF RECHARGE     =           0.0000
               GW ET     =    17288296.0000                 GW ET     =           0.0000
     SURFACE LEAKAGE     =           0.0000       SURFACE LEAKAGE     =           0.0000
           AG WELLS      =   940732288.0000             AG WELLS      =           0.0000

               TOTAL OUT =  2155394048.0000                 TOTAL OUT =          19.2108

                IN - OUT =        9984.0000                  IN - OUT =       9.5367E-06

     PERCENT DISCREPANCY =           0.00         PERCENT DISCREPANCY =           0.00






         TIME SUMMARY AT END OF TIME STEP   30 IN STRESS PERIOD   25
                    SECONDS     MINUTES      HOURS       DAYS        YEARS
                    -----------------------------------------------------------
   TIME STEP LENGTH  87667.      1461.1      24.352      1.0147     2.77799E-03
 STRESS PERIOD TIME 2.63000E+06  43833.      730.56      30.440     8.33397E-02
         TOTAL TIME 6.32067E+07 1.05345E+06  17557.      731.56      2.0029    
1
1
                            STRESS PERIOD NO.   26, LENGTH =   2630000.    
                            -----------------------------------------------

                              NUMBER OF TIME STEPS =    30

                               MULTIPLIER FOR DELT =     1.000

                            INITIAL TIME STEP SIZE =   87666.66    

 REUSING NON-PARAMETER GHB CELLS FROM LAST STRESS PERIOD

      2 GHB CELLS

 REUSING STREAM SEGMENT DATA FROM LAST STRESS PERIOD



            AREAL INFILTRATION RATE
 READING ON UNIT   19 WITH FORMAT: (10F4.0)            

            1           2           3           4           5           6           7           8           9          10
 ........................................................................................................................
   1   1.2000E-09   0.000       0.000       0.000       0.000       0.000       0.000       0.000       0.000       0.000    
   2   2.1000E-09  2.0000E-09  8.0000E-10  8.5000E-09   0.000       0.000       0.000       0.000       0.000       0.000    
   3   5.0000E-10  1.1000E-09  8.8000E-09  5.5000E-09   0.000       0.000       0.000       0.000       0.000       0.000    
   4   8.5000E-09  1.1000E-09  1.1000E-09  1.1000E-09  2.0000E-09   0.000       0.000       0.000       0.000       0.000    
   5   8.5000E-09  1.1000E-09  1.1000E-09  1.1000E-09  1.1000E-09   0.000       0.000       0.000       0.000       0.000    
   6   8.5000E-09  5.2000E-09  2.1000E-09  1.1000E-09  1.5000E-09   0.000       0.000       0.000       0.000       0.000    
   7   8.5000E-09  5.2000E-09  2.1000E-09  1.2000E-09  2.0000E-09   0.000       0.000       0.000       0.000       0.000    
   8   5.0000E-10  5.2000E-09  2.1000E-09  1.2000E-09  5.0000E-09   0.000       0.000       0.000       0.000       0.000    
   9   5.0000E-10  5.2000E-09  2.1000E-09  1.2000E-09  5.0000E-09   0.000       0.000       0.000       0.000       0.000    
  10   5.0000E-10  5.2000E-09  2.1000E-09  1.2000E-09  5.8000E-09   0.000       0.000       0.000       0.000       0.000    
  11   1.0000E-10  1.1000E-09  1.1000E-09  1.2000E-09  5.0000E-09   0.000       0.000       0.000       0.000       0.000    
  12   1.1000E-09  1.1000E-09  1.1000E-09  1.1000E-09  2.0000E-09   0.000       0.000       0.000       0.000       0.000    
  13   1.1000E-09  2.2000E-09  2.2000E-09  2.1000E-09  1.0000E-09   0.000       0.000       0.000       0.000       0.000    
  14   2.0000E-10  5.5000E-09  5.5000E-09  5.2000E-09  1.0000E-09   0.000       0.000       0.000       0.000       0.000    
  15    0.000      8.8000E-09  8.8000E-09   0.000       0.000       0.000       0.000       0.000       0.000       0.000    

                  ET RATE =  5.000000E-10

 USING ET EXTINCTION DEPTH FROM PREVIOUS STRESS PERIOD. CURRENT PERIOD IS:      26

 USING EXTINCTION WATER CONTENT FROM PREVIOUS STRESS PERIOD. CURRENT PERIOD IS:      26

 USING AIR ENTRY PRESSURE FROM PREVIOUS STRESS PERIOD. CURRENT PERIOD IS:      26

 USING ROOT PRESSURE HEAD FROM PREVIOUS STRESS PERIOD. CURRENT PERIOD IS:      26

 USING ROOT ACTIVITY FROM PREVIOUS STRESS PERIOD. CURRENT PERIOD IS:      26

 PROCESSING AG STRESS PERIOD DATA

 READING AG STRESS PERIOD DATA

 READING IRRIGATION WELL

 END PROCESSING AG STRESS PERIOD DATA OPTIONS
 
 SOLVING FOR HEAD 
                                                   Max.-Head-Change                         Max.-Flux-Residual
  Residual-Control   Outer-Iter.   Inner-Iter.     Column Row Layer    Maximum-Head-Change  Column Row Layer    Maximum-Flux-Residual          L2-NORM 
          0                 1           2             4    7     1       0.1803648813E-01       4    7    1         0.9455255143E+00      0.2413209106E+01
          0                 2           2             4    7     1      -0.1753513182E-02       4    7    1        -0.9450153734E-01      0.2412312879E+00
          0                 3           2             4    7     1       0.1193177008E-03       4    7    1         0.6610106706E-02      0.1687756744E-01
          0                 4           1             4    7     1      -0.4741806412E-05       4    7    1        -0.2700135437E-03      0.6897309029E-03

    ------------------------------------------------
       NWT REQUIRED            4 OUTER ITERATIONS 
       AND A TOTAL OF          7 INNER ITERATIONS.
    ------------------------------------------------

 NO OUTPUT CONTROL FOR STRESS PERIOD   26   TIME STEP    1
 
 SOLVING FOR HEAD 
                                                   Max.-Head-Change                         Max.-Flux-Residual
  Residual-Control   Outer-Iter.   Inner-Iter.     Column Row Layer    Maximum-Head-Change  Column Row Layer    Maximum-Flux-Residual          L2-NORM 
          0                 1           2             4    7     1       0.1787728994E-01       4    7    1         0.9371502893E+00      0.2394995326E+01
          0                 2           2             4    7     1      -0.1738035808E-02       4    7    1        -0.9366446092E-01      0.2394116793E+00
          0                 3           2             4    7     1       0.1182645433E-03       4    7    1         0.6551555543E-02      0.1675025684E-01
          0                 4           1             4    7     1      -0.4699952579E-05       4    7    1        -0.2676218007E-03      0.6845062770E-03

    ------------------------------------------------
       NWT REQUIRED            4 OUTER ITERATIONS 
       AND A TOTAL OF          7 INNER ITERATIONS.
    ------------------------------------------------

 NO OUTPUT CONTROL FOR STRESS PERIOD   26   TIME STEP    2
 
 SOLVING FOR HEAD 
                                                   Max.-Head-Change                         Max.-Flux-Residual
  Residual-Control   Outer-Iter.   Inner-Iter.     Column Row Layer    Maximum-Head-Change  Column Row Layer    Maximum-Flux-Residual          L2-NORM 
          0                 1           2             4    7     1       0.1771997054E-01       4    7    1         0.9288740702E+00      0.2377015077E+01
          0                 2           2             4    7     1      -0.1722741090E-02       4    7    1        -0.9283727987E-01      0.2376148786E+00
          0                 3           1             4    7     1       0.1172238177E-03       4    7    1         0.6493696525E-02      0.1662465880E-01
          0                 4           1             4    7     1      -0.4658596212E-05       4    7    1        -0.2652583353E-03      0.6793964569E-03

    ------------------------------------------------
       NWT REQUIRED            4 OUTER ITERATIONS 
       AND A TOTAL OF          6 INNER ITERATIONS.
    ------------------------------------------------

 NO OUTPUT CONTROL FOR STRESS PERIOD   26   TIME STEP    3
 
 SOLVING FOR HEAD 
                                                   Max.-Head-Change                         Max.-Flux-Residual
  Residual-Control   Outer-Iter.   Inner-Iter.     Column Row Layer    Maximum-Head-Change  Column Row Layer    Maximum-Flux-Residual          L2-NORM 
          0                 1           2             4    7     1       0.1756463318E-01       4    7    1         0.9207025932E+00      0.2359254569E+01
          0                 2           2             4    7     1      -0.1707639071E-02       4    7    1        -0.9202056755E-01      0.2358399850E+00
          0                 3           1             4    7     1       0.1161962011E-03       4    7    1         0.6436569779E-02      0.1650050037E-01
          0                 4           1             4    7     1      -0.4617757459E-05       4    7    1        -0.2629247692E-03      0.6743275074E-03

    ------------------------------------------------
       NWT REQUIRED            4 OUTER ITERATIONS 
       AND A TOTAL OF          6 INNER ITERATIONS.
    ------------------------------------------------

 NO OUTPUT CONTROL FOR STRESS PERIOD   26   TIME STEP    4
 
 SOLVING FOR HEAD 
                                                   Max.-Head-Change                         Max.-Flux-Residual
  Residual-Control   Outer-Iter.   Inner-Iter.     Column Row Layer    Maximum-Head-Change  Column Row Layer    Maximum-Flux-Residual          L2-NORM 
          0                 1           2             4    7     1       0.1741124314E-01       4    7    1         0.9126338825E+00      0.2341715989E+01
          0                 2           2             4    7     1      -0.1692726372E-02       4    7    1        -0.9121412647E-01      0.2340871539E+00
          0                 3           1             4    7     1       0.1151814666E-03       4    7    1         0.6380161449E-02      0.1637787842E-01
          0                 4           1             4    7     1      -0.4577430908E-05       4    7    1        -0.2606205674E-03      0.6692952845E-03

    ------------------------------------------------
       NWT REQUIRED            4 OUTER ITERATIONS 
       AND A TOTAL OF          6 INNER ITERATIONS.
    ------------------------------------------------

 NO OUTPUT CONTROL FOR STRESS PERIOD   26   TIME STEP    5
 
 SOLVING FOR HEAD 
                                                   Max.-Head-Change                         Max.-Flux-Residual
  Residual-Control   Outer-Iter.   Inner-Iter.     Column Row Layer    Maximum-Head-Change  Column Row Layer    Maximum-Flux-Residual          L2-NORM 
          0                 1           2             4    7     1       0.1725963040E-01       4    7    1         0.9046588042E+00      0.2324396811E+01
          0                 2           2             4    7     1      -0.1680081244E-02       4    7    1        -0.9055313544E-01      0.2323917610E+00
          0                 3           1             4    7     1       0.1143210766E-03       4    7    1         0.6333927950E-02      0.1625932356E-01
          0                 4           1             4    7     1      -0.4543241465E-05       4    7    1        -0.2587320662E-03      0.6644655197E-03

    ------------------------------------------------
       NWT REQUIRED            4 OUTER ITERATIONS 
       AND A TOTAL OF          6 INNER ITERATIONS.
    ------------------------------------------------

 NO OUTPUT CONTROL FOR STRESS PERIOD   26   TIME STEP    6
 
 SOLVING FOR HEAD 
                                                   Max.-Head-Change                         Max.-Flux-Residual
  Residual-Control   Outer-Iter.   Inner-Iter.     Column Row Layer    Maximum-Head-Change  Column Row Layer    Maximum-Flux-Residual          L2-NORM 
          0                 1           2             4    7     1       0.1710476961E-01       4    7    1         0.8966715534E+00      0.2307257317E+01
          0                 2           2             4    7     1      -0.1662931560E-02       4    7    1        -0.8961877363E-01      0.2306433219E+00
          0                 3           1             4    7     1       0.1131541218E-03       4    7    1         0.6268571596E-02      0.1613702154E-01
          0                 4           1             4    7     1      -0.4496864844E-05       4    7    1        -0.2560623029E-03      0.6594490015E-03

    ------------------------------------------------
       NWT REQUIRED            4 OUTER ITERATIONS 
       AND A TOTAL OF          6 INNER ITERATIONS.
    ------------------------------------------------

 NO OUTPUT CONTROL FOR STRESS PERIOD   26   TIME STEP    7
 
 SOLVING FOR HEAD 
                                                   Max.-Head-Change                         Max.-Flux-Residual
  Residual-Control   Outer-Iter.   Inner-Iter.     Column Row Layer    Maximum-Head-Change  Column Row Layer    Maximum-Flux-Residual          L2-NORM 
          0                 1           2             4    7     1       0.1695415082E-01       4    7    1         0.8887391621E+00      0.2290313516E+01
          0                 2           2             4    7     1      -0.1648288264E-02       4    7    1        -0.8882595582E-01      0.2289499193E+00
          0                 3           1             4    7     1       0.1121577186E-03       4    7    1         0.6213116159E-02      0.1601859786E-01
          0                 4           1             4    7     1      -0.4457266936E-05       4    7    1        -0.2537970299E-03      0.6546355116E-03

    ------------------------------------------------
       NWT REQUIRED            4 OUTER ITERATIONS 
       AND A TOTAL OF          6 INNER ITERATIONS.
    ------------------------------------------------

 NO OUTPUT CONTROL FOR STRESS PERIOD   26   TIME STEP    8
 
 SOLVING FOR HEAD 
                                                   Max.-Head-Change                         Max.-Flux-Residual
  Residual-Control   Outer-Iter.   Inner-Iter.     Column Row Layer    Maximum-Head-Change  Column Row Layer    Maximum-Flux-Residual          L2-NORM 
          0                 1           2             4    7     1       0.1680557310E-01       4    7    1         0.8809150993E+00      0.2273583212E+01
          0                 2           2             4    7     1      -0.1633843403E-02       4    7    1        -0.8804396522E-01      0.2272779780E+00
          0                 3           1             4    7     1       0.1111748176E-03       4    7    1         0.6158418057E-02      0.1590180048E-01
          0                 4           1             4    7     1      -0.4418205177E-05       4    7    1        -0.2515626659E-03      0.6498401479E-03

    ------------------------------------------------
       NWT REQUIRED            4 OUTER ITERATIONS 
       AND A TOTAL OF          6 INNER ITERATIONS.
    ------------------------------------------------

 NO OUTPUT CONTROL FOR STRESS PERIOD   26   TIME STEP    9
 
 SOLVING FOR HEAD 
                                                   Max.-Head-Change                         Max.-Flux-Residual
  Residual-Control   Outer-Iter.   Inner-Iter.     Column Row Layer    Maximum-Head-Change  Column Row Layer    Maximum-Flux-Residual          L2-NORM 
          0                 1           2             4    7     1       0.1665885168E-01       4    7    1         0.8731895293E+00      0.2257043215E+01
          0                 2           2             4    7     1      -0.1619579015E-02       4    7    1        -0.8727181882E-01      0.2256247121E+00
          0                 3           1             4    7     1       0.1102041973E-03       4    7    1         0.6104408543E-02      0.1578600164E-01
          0                 4           1             4    7     1      -0.4379631790E-05       4    7    1        -0.2493564521E-03      0.6451229082E-03

    ------------------------------------------------
       NWT REQUIRED            4 OUTER ITERATIONS 
       AND A TOTAL OF          6 INNER ITERATIONS.
    ------------------------------------------------

 NO OUTPUT CONTROL FOR STRESS PERIOD   26   TIME STEP   10
 
 SOLVING FOR HEAD 
                                                   Max.-Head-Change                         Max.-Flux-Residual
  Residual-Control   Outer-Iter.   Inner-Iter.     Column Row Layer    Maximum-Head-Change  Column Row Layer    Maximum-Flux-Residual          L2-NORM 
          0                 1           2             4    7     1       0.1651408512E-01       4    7    1         0.8655675376E+00      0.2240707925E+01
          0                 2           2             4    7     1      -0.1605504683E-02       4    7    1        -0.8651002488E-01      0.2239920707E+00
          0                 3           1             4    7     1       0.1092465088E-03       4    7    1         0.6051123146E-02      0.1567180341E-01
          0                 4           1             4    7     1      -0.4341571872E-05       4    7    1        -0.2471797943E-03      0.6404670263E-03

    ------------------------------------------------
       NWT REQUIRED            4 OUTER ITERATIONS 
       AND A TOTAL OF          6 INNER ITERATIONS.
    ------------------------------------------------

 NO OUTPUT CONTROL FOR STRESS PERIOD   26   TIME STEP   11
 
 SOLVING FOR HEAD 
                                                   Max.-Head-Change                         Max.-Flux-Residual
  Residual-Control   Outer-Iter.   Inner-Iter.     Column Row Layer    Maximum-Head-Change  Column Row Layer    Maximum-Flux-Residual          L2-NORM 
          0                 1           2             4    7     1       0.1637123358E-01       4    7    1         0.8580469028E+00      0.2224574130E+01
          0                 2           2             4    7     1      -0.1591616532E-02       4    7    1        -0.8575836138E-01      0.2223795027E+00
          0                 3           1             4    7     1       0.1083014895E-03       4    7    1         0.5998546336E-02      0.1555899787E-01
          0                 4           1             4    7     1      -0.4304016097E-05       4    7    1        -0.2450321149E-03      0.6360450762E-03

    ------------------------------------------------
       NWT REQUIRED            4 OUTER ITERATIONS 
       AND A TOTAL OF          6 INNER ITERATIONS.
    ------------------------------------------------

 NO OUTPUT CONTROL FOR STRESS PERIOD   26   TIME STEP   12
 
 SOLVING FOR HEAD 
                                                   Max.-Head-Change                         Max.-Flux-Residual
  Residual-Control   Outer-Iter.   Inner-Iter.     Column Row Layer    Maximum-Head-Change  Column Row Layer    Maximum-Flux-Residual          L2-NORM 
          0                 1           2             4    7     1       0.1623024957E-01       4    7    1         0.8506255584E+00      0.2208625561E+01
          0                 2           2             4    7     1      -0.1577909946E-02       4    7    1        -0.8501662178E-01      0.2207855090E+00
          0                 3           1             4    7     1       0.1073688244E-03       4    7    1         0.5946663698E-02      0.1544749191E-01
          0                 4           1             4    7     1      -0.4266950421E-05       4    7    1        -0.2429127505E-03      0.6312767175E-03

    ------------------------------------------------
       NWT REQUIRED            4 OUTER ITERATIONS 
       AND A TOTAL OF          6 INNER ITERATIONS.
    ------------------------------------------------

 NO OUTPUT CONTROL FOR STRESS PERIOD   26   TIME STEP   13
 
 SOLVING FOR HEAD 
                                                   Max.-Head-Change                         Max.-Flux-Residual
  Residual-Control   Outer-Iter.   Inner-Iter.     Column Row Layer    Maximum-Head-Change  Column Row Layer    Maximum-Flux-Residual          L2-NORM 
          0                 1           2             4    7     1       0.1609109740E-01       4    7    1         0.8433010422E+00      0.2192875121E+01
          0                 2           2             4    7     1      -0.1564381455E-02       4    7    1        -0.8428455995E-01      0.2192112533E+00
          0                 3           1             4    7     1       0.1064482779E-03       4    7    1         0.5895457984E-02      0.1533739900E-01
          0                 4           1             4    7     1      -0.4230366899E-05       4    7    1        -0.2408210589E-03      0.6268225350E-03

    ------------------------------------------------
       NWT REQUIRED            4 OUTER ITERATIONS 
       AND A TOTAL OF          6 INNER ITERATIONS.
    ------------------------------------------------

 NO OUTPUT CONTROL FOR STRESS PERIOD   26   TIME STEP   14
 
 SOLVING FOR HEAD 
                                                   Max.-Head-Change                         Max.-Flux-Residual
  Residual-Control   Outer-Iter.   Inner-Iter.     Column Row Layer    Maximum-Head-Change  Column Row Layer    Maximum-Flux-Residual          L2-NORM 
          0                 1           2             4    7     1       0.1595360050E-01       4    7    1         0.8360641699E+00      0.2177301528E+01
          0                 2           2             4    7     1      -0.1551013892E-02       4    7    1        -0.8356125794E-01      0.2176546908E+00
          0                 3           1             4    7     1       0.1055386819E-03       4    7    1         0.5844865000E-02      0.1522852187E-01
          0                 4           1             4    7     1      -0.4194218675E-05       4    7    1        -0.2387543980E-03      0.6223663274E-03

    ------------------------------------------------
       NWT REQUIRED            4 OUTER ITERATIONS 
       AND A TOTAL OF          6 INNER ITERATIONS.
    ------------------------------------------------

 NO OUTPUT CONTROL FOR STRESS PERIOD   26   TIME STEP   15
 
 SOLVING FOR HEAD 
                                                   Max.-Head-Change                         Max.-Flux-Residual
  Residual-Control   Outer-Iter.   Inner-Iter.     Column Row Layer    Maximum-Head-Change  Column Row Layer    Maximum-Flux-Residual          L2-NORM 
          0                 1           2             4    7     1       0.1581799845E-01       4    7    1         0.8289277888E+00      0.2161920355E+01
          0                 2           2             4    7     1      -0.1537830550E-02       4    7    1        -0.8284799985E-01      0.2161173317E+00
          0                 3           1             4    7     1       0.1046416214E-03       4    7    1         0.5794974565E-02      0.1512095120E-01
          0                 4           1             4    7     1      -0.4158568377E-05       4    7    1        -0.2367164475E-03      0.6179655158E-03

    ------------------------------------------------
       NWT REQUIRED            4 OUTER ITERATIONS 
       AND A TOTAL OF          6 INNER ITERATIONS.
    ------------------------------------------------

 NO OUTPUT CONTROL FOR STRESS PERIOD   26   TIME STEP   16
 
 SOLVING FOR HEAD 
                                                   Max.-Head-Change                         Max.-Flux-Residual
  Residual-Control   Outer-Iter.   Inner-Iter.     Column Row Layer    Maximum-Head-Change  Column Row Layer    Maximum-Flux-Residual          L2-NORM 
          0                 1           2             4    7     1       0.1568411430E-01       4    7    1         0.8218823182E+00      0.2146717260E+01
          0                 2           2             4    7     1      -0.1524814224E-02       4    7    1        -0.8214382806E-01      0.2145977882E+00
          0                 3           1             4    7     1       0.1037559249E-03       4    7    1         0.5745719699E-02      0.1501465102E-01
          0                 4           1             4    7     1      -0.4123369264E-05       4    7    1        -0.2347044147E-03      0.6136145658E-03

    ------------------------------------------------
       NWT REQUIRED            4 OUTER ITERATIONS 
       AND A TOTAL OF          6 INNER ITERATIONS.
    ------------------------------------------------

 NO OUTPUT CONTROL FOR STRESS PERIOD   26   TIME STEP   17
 
 SOLVING FOR HEAD 
                                                   Max.-Head-Change                         Max.-Flux-Residual
  Residual-Control   Outer-Iter.   Inner-Iter.     Column Row Layer    Maximum-Head-Change  Column Row Layer    Maximum-Flux-Residual          L2-NORM 
          0                 1           2             4    7     1       0.1555177922E-01       4    7    1         0.8149185824E+00      0.2131689542E+01
          0                 2           2             4    7     1      -0.1511948502E-02       4    7    1        -0.8144782550E-01      0.2130957239E+00
          0                 3           1             4    7     1       0.1028804770E-03       4    7    1         0.5697036241E-02      0.1490957484E-01
          0                 4           1             4    7     1      -0.4088578855E-05       4    7    1        -0.2327157761E-03      0.6093012504E-03

    ------------------------------------------------
       NWT REQUIRED            4 OUTER ITERATIONS 
       AND A TOTAL OF          6 INNER ITERATIONS.
    ------------------------------------------------

 NO OUTPUT CONTROL FOR STRESS PERIOD   26   TIME STEP   18
 
 SOLVING FOR HEAD 
                                                   Max.-Head-Change                         Max.-Flux-Residual
  Residual-Control   Outer-Iter.   Inner-Iter.     Column Row Layer    Maximum-Head-Change  Column Row Layer    Maximum-Flux-Residual          L2-NORM 
          0                 1           2             4    7     1       0.1542123574E-01       4    7    1         0.8080498340E+00      0.2116837384E+01
          0                 2           2             4    7     1      -0.1499256962E-02       4    7    1        -0.8076131672E-01      0.2116112277E+00
          0                 3           1             4    7     1       0.1020168812E-03       4    7    1         0.5649016861E-02      0.1480572877E-01
          0                 4           1             4    7     1      -0.4054258396E-05       4    7    1        -0.2307542450E-03      0.6050770277E-03

    ------------------------------------------------
       NWT REQUIRED            4 OUTER ITERATIONS 
       AND A TOTAL OF          6 INNER ITERATIONS.
    ------------------------------------------------

 NO OUTPUT CONTROL FOR STRESS PERIOD   26   TIME STEP   19
 
 SOLVING FOR HEAD 
                                                   Max.-Head-Change                         Max.-Flux-Residual
  Residual-Control   Outer-Iter.   Inner-Iter.     Column Row Layer    Maximum-Head-Change  Column Row Layer    Maximum-Flux-Residual          L2-NORM 
          0                 1           2             4    7     1       0.1529230917E-01       4    7    1         0.8012666416E+00      0.2102100988E+01
          0                 2           2             4    7     1      -0.1486722621E-02       4    7    1        -0.8008335910E-01      0.2101392531E+00
          0                 3           1             4    7     1       0.1011639817E-03       4    7    1         0.5601595602E-02      0.1470283520E-01
          0                 4           1             4    7     1      -0.4020363219E-05       4    7    1        -0.2288171381E-03      0.6008968957E-03

    ------------------------------------------------
       NWT REQUIRED            4 OUTER ITERATIONS 
       AND A TOTAL OF          6 INNER ITERATIONS.
    ------------------------------------------------

 NO OUTPUT CONTROL FOR STRESS PERIOD   26   TIME STEP   20
 
 SOLVING FOR HEAD 
                                                   Max.-Head-Change                         Max.-Flux-Residual
  Residual-Control   Outer-Iter.   Inner-Iter.     Column Row Layer    Maximum-Head-Change  Column Row Layer    Maximum-Flux-Residual          L2-NORM 
          0                 1           2             4    7     1       0.1516483082E-01       4    7    1         0.7945599474E+00      0.2087732499E+01
          0                 2           2             4    7     1      -0.1474329077E-02       4    7    1        -0.7941304728E-01      0.2086883161E+00
          0                 3           1             4    7     1       0.1003206629E-03       4    7    1         0.5554709145E-02      0.1460132071E-01
          0                 4           1             4    7     1      -0.3986848653E-05       4    7    1        -0.2269018860E-03      0.5967229395E-03

    ------------------------------------------------
       NWT REQUIRED            4 OUTER ITERATIONS 
       AND A TOTAL OF          6 INNER ITERATIONS.
    ------------------------------------------------

 NO OUTPUT CONTROL FOR STRESS PERIOD   26   TIME STEP   21
 
 SOLVING FOR HEAD 
                                                   Max.-Head-Change                         Max.-Flux-Residual
  Residual-Control   Outer-Iter.   Inner-Iter.     Column Row Layer    Maximum-Head-Change  Column Row Layer    Maximum-Flux-Residual          L2-NORM 
          0                 1           2             4    7     1       0.1503905235E-01       4    7    1         0.7879430124E+00      0.2073331526E+01
          0                 2           2             4    7     1      -0.1462100798E-02       4    7    1        -0.7875170669E-01      0.2072530346E+00
          0                 3           1             4    7     1       0.9948858913E-04       4    7    1         0.5508450188E-02      0.1450089958E-01

    ------------------------------------------------
       NWT REQUIRED            3 OUTER ITERATIONS 
       AND A TOTAL OF          5 INNER ITERATIONS.
    ------------------------------------------------

 NO OUTPUT CONTROL FOR STRESS PERIOD   26   TIME STEP   22
 
 SOLVING FOR HEAD 
                                                   Max.-Head-Change                         Max.-Flux-Residual
  Residual-Control   Outer-Iter.   Inner-Iter.     Column Row Layer    Maximum-Head-Change  Column Row Layer    Maximum-Flux-Residual          L2-NORM 
          0                 1           2             4    7     1       0.1491475340E-01       4    7    1         0.7814045148E+00      0.2059096550E+01
          0                 2           2             4    7     1      -0.1450016362E-02       4    7    1        -0.7809820576E-01      0.2058333426E+00
          0                 3           1             4    7     1       0.9866630406E-04       4    7    1         0.5462739636E-02      0.1440164451E-01

    ------------------------------------------------
       NWT REQUIRED            3 OUTER ITERATIONS 
       AND A TOTAL OF          5 INNER ITERATIONS.
    ------------------------------------------------

 NO OUTPUT CONTROL FOR STRESS PERIOD   26   TIME STEP   23
 
 SOLVING FOR HEAD 
                                                   Max.-Head-Change                         Max.-Flux-Residual
  Residual-Control   Outer-Iter.   Inner-Iter.     Column Row Layer    Maximum-Head-Change  Column Row Layer    Maximum-Flux-Residual          L2-NORM 
          0                 1           2             4    7     1       0.1479208323E-01       4    7    1         0.7749524543E+00      0.2045034546E+01
          0                 2           2             4    7     1      -0.1438090278E-02       4    7    1        -0.7745334405E-01      0.2044301206E+00
          0                 3           1             4    7     1       0.9785479366E-04       4    7    1         0.5417633346E-02      0.1430350465E-01

    ------------------------------------------------
       NWT REQUIRED            3 OUTER ITERATIONS 
       AND A TOTAL OF          5 INNER ITERATIONS.
    ------------------------------------------------

 NO OUTPUT CONTROL FOR STRESS PERIOD   26   TIME STEP   24
 
 SOLVING FOR HEAD 
                                                   Max.-Head-Change                         Max.-Flux-Residual
  Residual-Control   Outer-Iter.   Inner-Iter.     Column Row Layer    Maximum-Head-Change  Column Row Layer    Maximum-Flux-Residual          L2-NORM 
          0                 1           2             4    7     1       0.1467074599E-01       4    7    1         0.7685701698E+00      0.2031148937E+01
          0                 2           2             4    7     1      -0.1426293781E-02       4    7    1        -0.7681545621E-01      0.2030438833E+00
          0                 3           1             4    7     1       0.9705210064E-04       4    7    1         0.5373014865E-02      0.1420650502E-01

    ------------------------------------------------
       NWT REQUIRED            3 OUTER ITERATIONS 
       AND A TOTAL OF          5 INNER ITERATIONS.
    ------------------------------------------------

 NO OUTPUT CONTROL FOR STRESS PERIOD   26   TIME STEP   25
 
 SOLVING FOR HEAD 
                                                   Max.-Head-Change                         Max.-Flux-Residual
  Residual-Control   Outer-Iter.   Inner-Iter.     Column Row Layer    Maximum-Head-Change  Column Row Layer    Maximum-Flux-Residual          L2-NORM 
          0                 1           2             4    7     1       0.1455085166E-01       4    7    1         0.7622643312E+00      0.2017418980E+01
          0                 2           2             4    7     1      -0.1414637567E-02       4    7    1        -0.7618520899E-01      0.2016727572E+00
          0                 3           1             4    7     1       0.9625895371E-04       4    7    1         0.5328930828E-02      0.1411056572E-01

    ------------------------------------------------
       NWT REQUIRED            3 OUTER ITERATIONS 
       AND A TOTAL OF          5 INNER ITERATIONS.
    ------------------------------------------------

 NO OUTPUT CONTROL FOR STRESS PERIOD   26   TIME STEP   26
 
 SOLVING FOR HEAD 
                                                   Max.-Head-Change                         Max.-Flux-Residual
  Residual-Control   Outer-Iter.   Inner-Iter.     Column Row Layer    Maximum-Head-Change  Column Row Layer    Maximum-Flux-Residual          L2-NORM 
          0                 1           2             4    7     1       0.1443251242E-01       4    7    1         0.7560406418E+00      0.2003854267E+01
          0                 2           2             4    7     1      -0.1403132542E-02       4    7    1        -0.7556317239E-01      0.2003177711E+00
          0                 3           1             4    7     1       0.9547609415E-04       4    7    1         0.5285421080E-02      0.1401578483E-01

    ------------------------------------------------
       NWT REQUIRED            3 OUTER ITERATIONS 
       AND A TOTAL OF          5 INNER ITERATIONS.
    ------------------------------------------------

 NO OUTPUT CONTROL FOR STRESS PERIOD   26   TIME STEP   27
 
 SOLVING FOR HEAD 
                                                   Max.-Head-Change                         Max.-Flux-Residual
  Residual-Control   Outer-Iter.   Inner-Iter.     Column Row Layer    Maximum-Head-Change  Column Row Layer    Maximum-Flux-Residual          L2-NORM 
          0                 1           2             4    7     1       0.1431555599E-01       4    7    1         0.7498902443E+00      0.1990435803E+01
          0                 2           2             4    7     1      -0.1391761956E-02       4    7    1        -0.7494846116E-01      0.1989771284E+00
          0                 3           1             4    7     1       0.9470238295E-04       4    7    1         0.5242423770E-02      0.1392200830E-01

    ------------------------------------------------
       NWT REQUIRED            3 OUTER ITERATIONS 
       AND A TOTAL OF          5 INNER ITERATIONS.
    ------------------------------------------------

 NO OUTPUT CONTROL FOR STRESS PERIOD   26   TIME STEP   28
 
 SOLVING FOR HEAD 
                                                   Max.-Head-Change                         Max.-Flux-Residual
  Residual-Control   Outer-Iter.   Inner-Iter.     Column Row Layer    Maximum-Head-Change  Column Row Layer    Maximum-Flux-Residual          L2-NORM 
          0                 1           2             4    7     1       0.1420009580E-01       4    7    1         0.7438188798E+00      0.1977180431E+01
          0                 2           2             4    7     1      -0.1380536836E-02       4    7    1        -0.7434164910E-01      0.1976525809E+00
          0                 3           1             4    7     1       0.9393856955E-04       4    7    1         0.5199978957E-02      0.1382932692E-01

    ------------------------------------------------
       NWT REQUIRED            3 OUTER ITERATIONS 
       AND A TOTAL OF          5 INNER ITERATIONS.
    ------------------------------------------------

 NO OUTPUT CONTROL FOR STRESS PERIOD   26   TIME STEP   29
 
 SOLVING FOR HEAD 
                                                   Max.-Head-Change                         Max.-Flux-Residual
  Residual-Control   Outer-Iter.   Inner-Iter.     Column Row Layer    Maximum-Head-Change  Column Row Layer    Maximum-Flux-Residual          L2-NORM 
          0                 1           2             4    7     1       0.1408583338E-01       4    7    1         0.7378104172E+00      0.1964077728E+01
          0                 2           2             4    7     1      -0.1369428164E-02       4    7    1        -0.7374112386E-01      0.1963431399E+00
          0                 3           1             4    7     1       0.9318267938E-04       4    7    1         0.5157973870E-02      0.1373774356E-01

    ------------------------------------------------
       NWT REQUIRED            3 OUTER ITERATIONS 
       AND A TOTAL OF          5 INNER ITERATIONS.
    ------------------------------------------------

 NO OUTPUT CONTROL FOR STRESS PERIOD   26   TIME STEP   30



 STREAM LISTING     PERIOD     26   STEP       30

 LAYER ROW COL. STREAM  RCH.  FLOW INTO     FLOW TO   FLOW OUT OF   OVRLND.     DIRECT     STREAM       STREAM     STREAM     STREAM   STREAMBED  STREAMBED
                SEG.NO.  NO.  STRM. RCH.    AQUIFER    STRM. RCH.    RUNOFF     PRECIP       ET          HEAD       DEPTH      WIDTH   CONDCTNC.   GRADIENT

   1    1    1     1     1    1.9000E+01  2.1427E-01   1.8786E+01  0.000E+00  0.000E+00  0.000E+00  1.09413E+03  1.082E+00  1.166E+01  5.249E-02  1.361E+00
   1    2    2     1     2    1.8786E+01  3.3054E-01   1.8455E+01  0.000E+00  0.000E+00  0.000E+00  1.08914E+03  1.077E+00  1.158E+01  8.107E-02  1.359E+00
   1    3    3     1     3    1.8455E+01  2.8064E-01   1.8175E+01  0.000E+00  0.000E+00  0.000E+00  1.08349E+03  1.072E+00  1.149E+01  6.892E-02  1.357E+00
   1    3    4     1     4    1.8175E+01  2.5740E-01   1.7917E+01  0.000E+00  0.000E+00  0.000E+00  1.07848E+03  1.068E+00  1.140E+01  6.328E-02  1.356E+00
   1    4    5     2     1    1.5917E+01  3.0542E-01   1.5612E+01  0.000E+00  0.000E+00  0.000E+00  1.07285E+03  9.157E-01  1.200E+01  7.800E-02  1.305E+00
   1    5    6     2     2    1.5612E+01  2.3438E-01   1.5377E+01  0.000E+00  0.000E+00  0.000E+00  1.06742E+03  9.063E-01  1.200E+01  6.000E-02  1.302E+00
   1    6    6     2     3    1.5377E+01  2.3388E-01   1.5143E+01  0.000E+00  0.000E+00  0.000E+00  1.06269E+03  8.980E-01  1.200E+01  6.000E-02  1.299E+00
   1    7    6     2     4    1.5143E+01  2.3338E-01   1.4910E+01  0.000E+00  0.000E+00  0.000E+00  1.05797E+03  8.897E-01  1.200E+01  6.000E-02  1.297E+00
   1    8    6     2     5    1.4910E+01  2.3289E-01   1.4677E+01  0.000E+00  0.000E+00  0.000E+00  1.05324E+03  8.814E-01  1.200E+01  6.000E-02  1.294E+00
   1    3    5     3     1    2.0000E+00  2.8252E-01   1.7175E+00  0.000E+00  0.000E+00  0.000E+00  1.07555E+03  1.909E+00  9.636E+00  7.227E-02  1.955E+00
   1    3    6     3     2    1.7175E+00  2.4905E-01   1.4684E+00  0.000E+00  0.000E+00  0.000E+00  1.07264E+03  1.727E+00  8.909E+00  6.682E-02  1.864E+00
   1    3    7     3     3    1.4684E+00  1.9718E-01   1.2712E+00  0.000E+00  0.000E+00  0.000E+00  1.06987E+03  1.555E+00  8.218E+00  5.547E-02  1.777E+00
   1    4    8     3     4    1.2712E+00  2.2567E-01   1.0456E+00  0.000E+00  0.000E+00  0.000E+00  1.06682E+03  1.364E+00  7.455E+00  6.709E-02  1.682E+00
   1    5    8     3     5    1.0456E+00  1.5790E-01   8.8768E-01  0.000E+00  0.000E+00  0.000E+00  1.06362E+03  1.164E+00  6.655E+00  4.991E-02  1.582E+00
   1    6    8     3     6    8.8768E-01  5.5980E-02   8.3170E-01  0.000E+00  0.000E+00  0.000E+00  1.06158E+03  1.036E+00  6.145E+00  1.844E-02  1.518E+00
   1    5   10     4     1    1.0000E+01  9.0919E-02   9.9091E+00  0.000E+00  0.000E+00  0.000E+00  1.07836E+03  6.368E-01  1.000E+01  2.500E-02  1.212E+00
   1    5    9     4     2    9.9091E+00  1.8158E-01   9.7275E+00  0.000E+00  0.000E+00  0.000E+00  1.07154E+03  6.315E-01  1.000E+01  5.000E-02  1.211E+00
   1    6    8     4     3    9.7275E+00  1.2689E-01   9.6006E+00  0.000E+00  0.000E+00  0.000E+00  1.06381E+03  6.256E-01  1.000E+01  3.500E-02  1.209E+00
   1    6    8     5     1    1.0432E+01  2.2686E-01   1.0205E+01  0.000E+00  0.000E+00  0.000E+00  1.05868E+03  6.790E-01  1.542E+01  6.166E-02  1.226E+00
   1    7    7     5     2    1.0205E+01  2.7894E-01   9.9265E+00  0.000E+00  0.000E+00  0.000E+00  1.05417E+03  6.732E-01  1.519E+01  7.594E-02  1.224E+00
   1    8    7     5     3    9.9265E+00  1.9221E-01   9.7343E+00  0.000E+00  0.000E+00  0.000E+00  1.04992E+03  6.676E-01  1.497E+01  5.241E-02  1.223E+00
   1    8    6     5     4    9.7343E+00  1.3577E-01   9.5985E+00  0.000E+00  0.000E+00  0.000E+00  1.04691E+03  6.637E-01  1.482E+01  3.706E-02  1.221E+00
   1    9    6     6     1    2.4276E+01  2.5176E-01   2.4024E+01  0.000E+00  0.000E+00  0.000E+00  1.04392E+03  1.196E+00  1.200E+01  6.000E-02  1.399E+00
   1   10    7     6     2    2.4024E+01  2.5131E-01   2.3773E+01  0.000E+00  0.000E+00  0.000E+00  1.03937E+03  1.188E+00  1.200E+01  6.000E-02  1.396E+00
   1   11    7     6     3    2.3773E+01  2.5086E-01   2.3522E+01  0.000E+00  0.000E+00  0.000E+00  1.03482E+03  1.181E+00  1.200E+01  6.000E-02  1.394E+00
   1   12    7     6     4    2.3522E+01  2.5041E-01   2.3271E+01  0.000E+00  0.000E+00  0.000E+00  1.03026E+03  1.173E+00  1.200E+01  6.000E-02  1.391E+00
   1   13    7     6     5    2.3271E+01  3.6187E-03   2.3268E+01  0.000E+00  0.000E+00  0.000E+00  1.02708E+03  1.170E+00  1.200E+01  2.400E-02  5.026E-02
   1   14    9     7     1    1.5000E+02  1.3391E+00   1.4866E+02  0.000E+00  0.000E+00  0.000E+00  1.03987E+03  2.288E+00  5.529E+01  5.593E-01  7.981E-01
   1   13    8     7     2    1.4866E+02  1.8656E+00   1.4680E+02  0.000E+00  0.000E+00  0.000E+00  1.03478E+03  2.279E+00  5.526E+01  6.148E-01  1.012E+00
   1   13    7     7     3    1.4680E+02  1.5421E+00   1.4525E+02  0.000E+00  0.000E+00  0.000E+00  1.02969E+03  2.270E+00  5.522E+01  5.584E-01  9.205E-01
   1   13    6     8     1    1.6852E+02  9.9341E-01   1.6753E+02  0.000E+00  0.000E+00  0.000E+00  1.02481E+03  2.939E+00  4.262E+01  4.343E-01  7.624E-01
   1   13    5     8     2    1.6753E+02  2.5233E-01   1.6728E+02  0.000E+00  0.000E+00  0.000E+00  1.01856E+03  2.935E+00  4.256E+01  4.337E-01  1.939E-01
   1   13    4     8     3    1.6728E+02 -2.1601E+00   1.6944E+02  0.000E+00  0.000E+00  0.000E+00  1.01232E+03  2.941E+00  4.265E+01  4.346E+00 -1.657E-01
   1   13    3     8     4    1.6944E+02 -3.5480E+00   1.7298E+02  0.000E+00  0.000E+00  0.000E+00  1.00609E+03  2.960E+00  4.292E+01  4.374E+00 -2.704E-01
   1   13    2     8     5    1.7298E+02 -2.5577E+00   1.7554E+02  0.000E+00  0.000E+00  0.000E+00  9.99855E+02  2.980E+00  4.321E+01  4.403E+00 -1.936E-01
   1   13    1     8     6    1.7554E+02 -1.9822E+00   1.7752E+02  0.000E+00  0.000E+00  0.000E+00  9.94869E+02  2.994E+00  4.342E+01  2.655E+00 -2.489E-01





UNSATURATED ZONE PACKAGE VOLUMETRIC BUDGET FOR  TIME STEP    30 STRESS PERIOD   26
  ------------------------------------------------------------------------------



     CUMULATIVE VOLUMES      L**3       RATES FOR THIS TIME STEP      L**3/T
     ------------------                 ------------------------

           IN:                                      IN:
           ---                                      ---
        INFILTRATION =  1230600368.9753          INFILTRATION =           4.4075

          OUT:                                     OUT:
          ----                                     ----
              UZF ET =  1001812012.7561                UZF ET =           0.7253
        UZF RECHARGE =   147489437.6774          UZF RECHARGE =           0.0428

            IN - OUT =    81298918.5419              IN - OUT =           3.6393

          STORAGE:                                 STORAGE:
          --------                                 --------
      STORAGE CHANGE =    81300422.6872        STORAGE CHANGE =           3.6393

 PERCENT DISCREPANCY IS DIFFERENCE BETWEEN IN-OUT MINUS CHANGE IN STORAGE
 DIVIDED BY THE AVERAGE OF IN AND OUT TIMES 100

 PERCENT DISCREPANCY =          -0.00     PERCENT DISCREPANCY =           0.00






1
  VOLUMETRIC BUDGET FOR AGRICULTURAL FIELDS AT TIME STEP   30, STRESS PERIOD  26
  ------------------------------------------------------------------------------

     CUMULATIVE VOLUMES      L**3       RATES FOR THIS TIME STEP      L**3/T
     ------------------                 ------------------------

           IN:                                      IN:
           ---                                      ---
               AG WELLS  =   940732288.0000                 AG WELLS  =           0.0000
      DIVERSION SEGMENTS =           0.0000        DIVERSION SEGMENTS =           0.0000
           GW IRRIGATION =           0.0000             GW IRRIGATION =           0.0000
           SW IRRIGATION =           0.0000             SW IRRIGATION =           0.0000
        SYSTEM LOSSES GW =           0.0000          SYSTEM LOSSES GW =           0.0000
        SYSTEM LOSSES SW =           0.0000          SYSTEM LOSSES SW =           0.0000

                TOTAL IN =   940732288.0000                  TOTAL IN =           0.0000

          OUT:                                     OUT:
          ----                                     ----
               AG WELLS  =           0.0000                 AG WELLS  =           0.0000
      DIVERSION SEGMENTS =           0.0000        DIVERSION SEGMENTS =           0.0000
           GW IRRIGATION =   940732288.0000             GW IRRIGATION =           0.0000
           SW IRRIGATION =           0.0000             SW IRRIGATION =           0.0000
        SYSTEM LOSSES GW =           0.0000          SYSTEM LOSSES GW =           0.0000
        SYSTEM LOSSES SW =           0.0000          SYSTEM LOSSES SW =           0.0000

               TOTAL OUT =   940732288.0000                 TOTAL OUT =           0.0000

                IN - OUT =           0.0000                  IN - OUT =           0.0000

     PERCENT DISCREPANCY =           0.00         PERCENT DISCREPANCY =           0.00



1
  VOLUMETRIC BUDGET FOR ENTIRE MODEL AT END OF TIME STEP   30, STRESS PERIOD  26
  ------------------------------------------------------------------------------

     CUMULATIVE VOLUMES      L**3       RATES FOR THIS TIME STEP      L**3/T
     ------------------                 ------------------------

           IN:                                      IN:
           ---                                      ---
             STORAGE     =  1221941248.0000               STORAGE     =           5.8716
       CONSTANT HEAD     =           0.0000         CONSTANT HEAD     =           0.0000
     HEAD DEP BOUNDS     =    18796256.0000       HEAD DEP BOUNDS     =           0.2860
      STREAM LEAKAGE     =   815798784.0000        STREAM LEAKAGE     =          11.7248
        UZF RECHARGE     =   147489312.0000          UZF RECHARGE     =       4.2828E-02
               GW ET     =           0.0000                 GW ET     =           0.0000
     SURFACE LEAKAGE     =           0.0000       SURFACE LEAKAGE     =           0.0000
           AG WELLS      =           0.0000             AG WELLS      =           0.0000

                TOTAL IN =  2204025600.0000                  TOTAL IN =          17.9252

          OUT:                                     OUT:
          ----                                     ----
             STORAGE     =   543240192.0000               STORAGE     =           7.3882
       CONSTANT HEAD     =           0.0000         CONSTANT HEAD     =           0.0000
     HEAD DEP BOUNDS     =    19347412.0000       HEAD DEP BOUNDS     =           0.2894
      STREAM LEAKAGE     =   683407872.0000        STREAM LEAKAGE     =          10.2480
        UZF RECHARGE     =           0.0000          UZF RECHARGE     =           0.0000
               GW ET     =    17288296.0000                 GW ET     =           0.0000
     SURFACE LEAKAGE     =           0.0000       SURFACE LEAKAGE     =           0.0000
           AG WELLS      =   940732288.0000             AG WELLS      =           0.0000

               TOTAL OUT =  2204016128.0000                 TOTAL OUT =          17.9256

                IN - OUT =        9472.0000                  IN - OUT =      -4.2725E-04

     PERCENT DISCREPANCY =           0.00         PERCENT DISCREPANCY =          -0.00






         TIME SUMMARY AT END OF TIME STEP   30 IN STRESS PERIOD   26
                    SECONDS     MINUTES      HOURS       DAYS        YEARS
                    -----------------------------------------------------------
   TIME STEP LENGTH  87667.      1461.1      24.352      1.0147     2.77799E-03
 STRESS PERIOD TIME 2.63000E+06  43833.      730.56      30.440     8.33397E-02
         TOTAL TIME 6.58368E+07 1.09728E+06  18288.      762.00      2.0862    
1
1
                            STRESS PERIOD NO.   27, LENGTH =   2630000.    
                            -----------------------------------------------

                              NUMBER OF TIME STEPS =    30

                               MULTIPLIER FOR DELT =     1.000

                            INITIAL TIME STEP SIZE =   87666.66    

 REUSING NON-PARAMETER GHB CELLS FROM LAST STRESS PERIOD

      2 GHB CELLS

 REUSING STREAM SEGMENT DATA FROM LAST STRESS PERIOD



            AREAL INFILTRATION RATE
 READING ON UNIT   19 WITH FORMAT: (10F4.0)            

            1           2           3           4           5           6           7           8           9          10
 ........................................................................................................................
   1   1.2000E-09   0.000       0.000       0.000       0.000       0.000       0.000       0.000       0.000       0.000    
   2   2.1000E-09  2.0000E-09  8.0000E-10  8.5000E-09   0.000       0.000       0.000       0.000       0.000       0.000    
   3   5.0000E-10  1.1000E-09  8.8000E-09  5.5000E-09   0.000       0.000       0.000       0.000       0.000       0.000    
   4   8.5000E-09  1.1000E-09  1.1000E-09  1.1000E-09  2.0000E-09   0.000       0.000       0.000       0.000       0.000    
   5   8.5000E-09  1.1000E-09  1.1000E-09  1.1000E-09  1.1000E-09   0.000       0.000       0.000       0.000       0.000    
   6   8.5000E-09  5.2000E-09  2.1000E-09  1.1000E-09  1.5000E-09   0.000       0.000       0.000       0.000       0.000    
   7   8.5000E-09  5.2000E-09  2.1000E-09  1.2000E-09  2.0000E-09   0.000       0.000       0.000       0.000       0.000    
   8   5.0000E-10  5.2000E-09  2.1000E-09  1.2000E-09  5.0000E-09   0.000       0.000       0.000       0.000       0.000    
   9   5.0000E-10  5.2000E-09  2.1000E-09  1.2000E-09  5.0000E-09   0.000       0.000       0.000       0.000       0.000    
  10   5.0000E-10  5.2000E-09  2.1000E-09  1.2000E-09  5.8000E-09   0.000       0.000       0.000       0.000       0.000    
  11   1.0000E-10  1.1000E-09  1.1000E-09  1.2000E-09  5.0000E-09   0.000       0.000       0.000       0.000       0.000    
  12   1.1000E-09  1.1000E-09  1.1000E-09  1.1000E-09  2.0000E-09   0.000       0.000       0.000       0.000       0.000    
  13   1.1000E-09  2.2000E-09  2.2000E-09  2.1000E-09  1.0000E-09   0.000       0.000       0.000       0.000       0.000    
  14   2.0000E-10  5.5000E-09  5.5000E-09  5.2000E-09  1.0000E-09   0.000       0.000       0.000       0.000       0.000    
  15    0.000      8.8000E-09  8.8000E-09   0.000       0.000       0.000       0.000       0.000       0.000       0.000    

                  ET RATE =  5.000000E-10

 USING ET EXTINCTION DEPTH FROM PREVIOUS STRESS PERIOD. CURRENT PERIOD IS:      27

 USING EXTINCTION WATER CONTENT FROM PREVIOUS STRESS PERIOD. CURRENT PERIOD IS:      27

 USING AIR ENTRY PRESSURE FROM PREVIOUS STRESS PERIOD. CURRENT PERIOD IS:      27

 USING ROOT PRESSURE HEAD FROM PREVIOUS STRESS PERIOD. CURRENT PERIOD IS:      27

 USING ROOT ACTIVITY FROM PREVIOUS STRESS PERIOD. CURRENT PERIOD IS:      27

 PROCESSING AG STRESS PERIOD DATA

 READING AG STRESS PERIOD DATA

 READING IRRIGATION WELL

 END PROCESSING AG STRESS PERIOD DATA OPTIONS
 
 SOLVING FOR HEAD 
                                                   Max.-Head-Change                         Max.-Flux-Residual
  Residual-Control   Outer-Iter.   Inner-Iter.     Column Row Layer    Maximum-Head-Change  Column Row Layer    Maximum-Flux-Residual          L2-NORM 
          0                 1           2             4    7     1       0.1397302046E-01       4    7    1         0.7318787325E+00      0.1951114799E+01
          0                 2           2             4    7     1      -0.1358460415E-02       4    7    1        -0.7314827244E-01      0.1950475277E+00
          0                 3           1             4    7     1       0.9243637885E-04       4    7    1         0.5116505588E-02      0.1364710195E-01

    ------------------------------------------------
       NWT REQUIRED            3 OUTER ITERATIONS 
       AND A TOTAL OF          5 INNER ITERATIONS.
    ------------------------------------------------

 NO OUTPUT CONTROL FOR STRESS PERIOD   27   TIME STEP    1
 
 SOLVING FOR HEAD 
                                                   Max.-Head-Change                         Max.-Flux-Residual
  Residual-Control   Outer-Iter.   Inner-Iter.     Column Row Layer    Maximum-Head-Change  Column Row Layer    Maximum-Flux-Residual          L2-NORM 
          0                 1           2             4    7     1       0.1386149502E-01       4    7    1         0.7260148633E+00      0.1938298569E+01
          0                 2           2             4    7     1      -0.1347617836E-02       4    7    1        -0.7256219899E-01      0.1937665090E+00
          0                 3           1             4    7     1       0.9169859572E-04       4    7    1         0.5075511376E-02      0.1355747950E-01

    ------------------------------------------------
       NWT REQUIRED            3 OUTER ITERATIONS 
       AND A TOTAL OF          5 INNER ITERATIONS.
    ------------------------------------------------

 NO OUTPUT CONTROL FOR STRESS PERIOD   27   TIME STEP    2
 
 SOLVING FOR HEAD 
                                                   Max.-Head-Change                         Max.-Flux-Residual
  Residual-Control   Outer-Iter.   Inner-Iter.     Column Row Layer    Maximum-Head-Change  Column Row Layer    Maximum-Flux-Residual          L2-NORM 
          0                 1           2             4    7     1       0.1375136915E-01       4    7    1         0.7202250859E+00      0.1925630915E+01
          0                 2           2             4    7     1      -0.1336911326E-02       4    7    1        -0.7198353083E-01      0.1925002889E+00
          0                 3           1             4    7     1       0.9097007125E-04       4    7    1         0.5035035164E-02      0.1346889541E-01

    ------------------------------------------------
       NWT REQUIRED            3 OUTER ITERATIONS 
       AND A TOTAL OF          5 INNER ITERATIONS.
    ------------------------------------------------

 NO OUTPUT CONTROL FOR STRESS PERIOD   27   TIME STEP    3
 
 SOLVING FOR HEAD 
                                                   Max.-Head-Change                         Max.-Flux-Residual
  Residual-Control   Outer-Iter.   Inner-Iter.     Column Row Layer    Maximum-Head-Change  Column Row Layer    Maximum-Flux-Residual          L2-NORM 
          0                 1           2             4    7     1       0.1364247870E-01       4    7    1         0.7145005354E+00      0.1913094139E+01
          0                 2           2             4    7     1      -0.1326324925E-02       4    7    1        -0.7141138194E-01      0.1912470569E+00
          0                 3           1             4    7     1       0.9024971947E-04       4    7    1         0.4995014948E-02      0.1338123547E-01

    ------------------------------------------------
       NWT REQUIRED            3 OUTER ITERATIONS 
       AND A TOTAL OF          5 INNER ITERATIONS.
    ------------------------------------------------

 NO OUTPUT CONTROL FOR STRESS PERIOD   27   TIME STEP    4
 
 SOLVING FOR HEAD 
                                                   Max.-Head-Change                         Max.-Flux-Residual
  Residual-Control   Outer-Iter.   Inner-Iter.     Column Row Layer    Maximum-Head-Change  Column Row Layer    Maximum-Flux-Residual          L2-NORM 
          0                 1           2             4    7     1       0.1353480854E-01       4    7    1         0.7088400384E+00      0.1900617427E+01
          0                 2           2             4    7     1      -0.1315857161E-02       4    7    1        -0.7084563499E-01      0.1900003536E+00
          0                 3           1             4    7     1       0.8953744049E-04       4    7    1         0.4955442533E-02      0.1329408735E-01

    ------------------------------------------------
       NWT REQUIRED            3 OUTER ITERATIONS 
       AND A TOTAL OF          5 INNER ITERATIONS.
    ------------------------------------------------

 NO OUTPUT CONTROL FOR STRESS PERIOD   27   TIME STEP    5
 
 SOLVING FOR HEAD 
                                                   Max.-Head-Change                         Max.-Flux-Residual
  Residual-Control   Outer-Iter.   Inner-Iter.     Column Row Layer    Maximum-Head-Change  Column Row Layer    Maximum-Flux-Residual          L2-NORM 
          0                 1           2             4    7     1       0.1342846870E-01       4    7    1         0.7032501507E+00      0.1888457906E+01
          0                 2           2             4    7     1      -0.1305518734E-02       4    7    1        -0.7028694530E-01      0.1887743090E+00
          0                 3           1             4    7     1       0.8883396209E-04       4    7    1         0.4916363746E-02      0.1320829651E-01

    ------------------------------------------------
       NWT REQUIRED            3 OUTER ITERATIONS 
       AND A TOTAL OF          5 INNER ITERATIONS.
    ------------------------------------------------

 NO OUTPUT CONTROL FOR STRESS PERIOD   27   TIME STEP    6
 
 SOLVING FOR HEAD 
                                                   Max.-Head-Change                         Max.-Flux-Residual
  Residual-Control   Outer-Iter.   Inner-Iter.     Column Row Layer    Maximum-Head-Change  Column Row Layer    Maximum-Flux-Residual          L2-NORM 
          0                 1           2             4    7     1       0.1332330047E-01       4    7    1         0.6977218983E+00      0.1876260939E+01
          0                 2           2             4    7     1      -0.1295294211E-02       4    7    1        -0.6973441590E-01      0.1875588322E+00
          0                 3           1             4    7     1       0.8813823485E-04       4    7    1         0.4877715886E-02      0.1312326943E-01

    ------------------------------------------------
       NWT REQUIRED            3 OUTER ITERATIONS 
       AND A TOTAL OF          5 INNER ITERATIONS.
    ------------------------------------------------

 NO OUTPUT CONTROL FOR STRESS PERIOD   27   TIME STEP    7
 
 SOLVING FOR HEAD 
                                                   Max.-Head-Change                         Max.-Flux-Residual
  Residual-Control   Outer-Iter.   Inner-Iter.     Column Row Layer    Maximum-Head-Change  Column Row Layer    Maximum-Flux-Residual          L2-NORM 
          0                 1           2             4    7     1       0.1321928510E-01       4    7    1         0.6922543910E+00      0.1864210772E+01
          0                 2           2             4    7     1      -0.1285181772E-02       4    7    1        -0.6918795780E-01      0.1863569318E+00
          0                 3           1             4    7     1       0.8745013358E-04       4    7    1         0.4839492659E-02      0.1303917881E-01

    ------------------------------------------------
       NWT REQUIRED            3 OUTER ITERATIONS 
       AND A TOTAL OF          5 INNER ITERATIONS.
    ------------------------------------------------

 NO OUTPUT CONTROL FOR STRESS PERIOD   27   TIME STEP    8
 
 SOLVING FOR HEAD 
                                                   Max.-Head-Change                         Max.-Flux-Residual
  Residual-Control   Outer-Iter.   Inner-Iter.     Column Row Layer    Maximum-Head-Change  Column Row Layer    Maximum-Flux-Residual          L2-NORM 
          0                 1           2             4    7     1       0.1311653978E-01       4    7    1         0.6868539977E+00      0.1852306869E+01
          0                 2           2             4    7     1      -0.1275192807E-02       4    7    1        -0.6864820755E-01      0.1851688316E+00
          0                 3           1             4    7     1       0.8677043434E-04       4    7    1         0.4801738642E-02      0.1295605836E-01

    ------------------------------------------------
       NWT REQUIRED            3 OUTER ITERATIONS 
       AND A TOTAL OF          5 INNER ITERATIONS.
    ------------------------------------------------

 NO OUTPUT CONTROL FOR STRESS PERIOD   27   TIME STEP    9
 
 SOLVING FOR HEAD 
                                                   Max.-Head-Change                         Max.-Flux-Residual
  Residual-Control   Outer-Iter.   Inner-Iter.     Column Row Layer    Maximum-Head-Change  Column Row Layer    Maximum-Flux-Residual          L2-NORM 
          0                 1           2             4    7     1       0.1301504010E-01       4    7    1         0.6815194537E+00      0.1840541370E+01
          0                 2           2             4    7     1      -0.1265324946E-02       4    7    1        -0.6811503879E-01      0.1839939441E+00
          0                 3           1             4    7     1       0.8609897593E-04       4    7    1         0.4764444997E-02      0.1287387887E-01

    ------------------------------------------------
       NWT REQUIRED            3 OUTER ITERATIONS 
       AND A TOTAL OF          5 INNER ITERATIONS.
    ------------------------------------------------

 NO OUTPUT CONTROL FOR STRESS PERIOD   27   TIME STEP   10
 
 SOLVING FOR HEAD 
                                                   Max.-Head-Change                         Max.-Flux-Residual
  Residual-Control   Outer-Iter.   Inner-Iter.     Column Row Layer    Maximum-Head-Change  Column Row Layer    Maximum-Flux-Residual          L2-NORM 
          0                 1           2             4    7     1       0.1291462951E-01       4    7    1         0.6762421539E+00      0.1828907248E+01
          0                 2           2             4    7     1      -0.1255562966E-02       4    7    1        -0.6758759141E-01      0.1828279882E+00
          0                 3           1             4    7     1       0.8543472175E-04       4    7    1         0.4727551518E-02      0.1279231690E-01

    ------------------------------------------------
       NWT REQUIRED            3 OUTER ITERATIONS 
       AND A TOTAL OF          5 INNER ITERATIONS.
    ------------------------------------------------

 NO OUTPUT CONTROL FOR STRESS PERIOD   27   TIME STEP   11
 
 SOLVING FOR HEAD 
                                                   Max.-Head-Change                         Max.-Flux-Residual
  Residual-Control   Outer-Iter.   Inner-Iter.     Column Row Layer    Maximum-Head-Change  Column Row Layer    Maximum-Flux-Residual          L2-NORM 
          0                 1           2             4    7     1       0.1281528913E-01       4    7    1         0.6710213214E+00      0.1817403974E+01
          0                 2           2             4    7     1      -0.1245905034E-02       4    7    1        -0.6706578779E-01      0.1816822376E+00
          0                 3           1             4    7     1       0.8477754776E-04       4    7    1         0.4691052820E-02      0.1271215861E-01

    ------------------------------------------------
       NWT REQUIRED            3 OUTER ITERATIONS 
       AND A TOTAL OF          5 INNER ITERATIONS.
    ------------------------------------------------

 NO OUTPUT CONTROL FOR STRESS PERIOD   27   TIME STEP   12
 
 SOLVING FOR HEAD 
                                                   Max.-Head-Change                         Max.-Flux-Residual
  Residual-Control   Outer-Iter.   Inner-Iter.     Column Row Layer    Maximum-Head-Change  Column Row Layer    Maximum-Flux-Residual          L2-NORM 
          0                 1           2             4    7     1       0.1271713967E-01       4    7    1         0.6658633177E+00      0.1806033629E+01
          0                 2           2             4    7     1      -0.1236362886E-02       4    7    1        -0.6655026373E-01      0.1805457946E+00
          0                 3           1             4    7     1       0.8412825204E-04       4    7    1         0.4654993353E-02      0.1263265431E-01

    ------------------------------------------------
       NWT REQUIRED            3 OUTER ITERATIONS 
       AND A TOTAL OF          5 INNER ITERATIONS.
    ------------------------------------------------

 NO OUTPUT CONTROL FOR STRESS PERIOD   27   TIME STEP   13
 
 SOLVING FOR HEAD 
                                                   Max.-Head-Change                         Max.-Flux-Residual
  Residual-Control   Outer-Iter.   Inner-Iter.     Column Row Layer    Maximum-Head-Change  Column Row Layer    Maximum-Flux-Residual          L2-NORM 
          0                 1           2             4    7     1       0.1262002311E-01       4    7    1         0.6607597206E+00      0.1794783205E+01
          0                 2           2             4    7     1      -0.1226921157E-02       4    7    1        -0.6604017745E-01      0.1794211629E+00
          0                 3           1             4    7     1       0.8348579001E-04       4    7    1         0.4619314284E-02      0.1255398672E-01

    ------------------------------------------------
       NWT REQUIRED            3 OUTER ITERATIONS 
       AND A TOTAL OF          5 INNER ITERATIONS.
    ------------------------------------------------

 NO OUTPUT CONTROL FOR STRESS PERIOD   27   TIME STEP   14
 
 SOLVING FOR HEAD 
                                                   Max.-Head-Change                         Max.-Flux-Residual
  Residual-Control   Outer-Iter.   Inner-Iter.     Column Row Layer    Maximum-Head-Change  Column Row Layer    Maximum-Flux-Residual          L2-NORM 
          0                 1           2             4    7     1       0.1252406112E-01       4    7    1         0.6557170181E+00      0.1783662724E+01
          0                 2           2             4    7     1      -0.1217591675E-02       4    7    1        -0.6553617743E-01      0.1783093812E+00
          0                 3           1             4    7     1       0.8285096520E-04       4    7    1         0.4584060890E-02      0.1247619266E-01

    ------------------------------------------------
       NWT REQUIRED            3 OUTER ITERATIONS 
       AND A TOTAL OF          5 INNER ITERATIONS.
    ------------------------------------------------

 NO OUTPUT CONTROL FOR STRESS PERIOD   27   TIME STEP   15
 
 SOLVING FOR HEAD 
                                                   Max.-Head-Change                         Max.-Flux-Residual
  Residual-Control   Outer-Iter.   Inner-Iter.     Column Row Layer    Maximum-Head-Change  Column Row Layer    Maximum-Flux-Residual          L2-NORM 
          0                 1           2             4    7     1       0.1242923086E-01       4    7    1         0.6507341780E+00      0.1772656440E+01
          0                 2           2             4    7     1      -0.1208372222E-02       4    7    1        -0.6503816051E-01      0.1772089846E+00
          0                 3           1             4    7     1       0.8222362755E-04       4    7    1         0.4549226008E-02      0.1239922007E-01

    ------------------------------------------------
       NWT REQUIRED            3 OUTER ITERATIONS 
       AND A TOTAL OF          5 INNER ITERATIONS.
    ------------------------------------------------

 NO OUTPUT CONTROL FOR STRESS PERIOD   27   TIME STEP   16
 
 SOLVING FOR HEAD 
                                                   Max.-Head-Change                         Max.-Flux-Residual
  Residual-Control   Outer-Iter.   Inner-Iter.     Column Row Layer    Maximum-Head-Change  Column Row Layer    Maximum-Flux-Residual          L2-NORM 
          0                 1           2             4    7     1       0.1233537830E-01       4    7    1         0.6458026745E+00      0.1761772734E+01
          0                 2           2             4    7     1      -0.1199247822E-02       4    7    1        -0.6454527452E-01      0.1761207195E+00
          0                 3           1             4    7     1       0.8160275794E-04       4    7    1         0.4514750029E-02      0.1232308944E-01

    ------------------------------------------------
       NWT REQUIRED            3 OUTER ITERATIONS 
       AND A TOTAL OF          5 INNER ITERATIONS.
    ------------------------------------------------

 NO OUTPUT CONTROL FOR STRESS PERIOD   27   TIME STEP   17
 
 SOLVING FOR HEAD 
                                                   Max.-Head-Change                         Max.-Flux-Residual
  Residual-Control   Outer-Iter.   Inner-Iter.     Column Row Layer    Maximum-Head-Change  Column Row Layer    Maximum-Flux-Residual          L2-NORM 
          0                 1           2             4    7     1       0.1224262303E-01       4    7    1         0.6409292047E+00      0.1751002770E+01
          0                 2           2             4    7     1      -0.1190230102E-02       4    7    1        -0.6405818883E-01      0.1750438241E+00
          0                 3           1             4    7     1       0.8098914722E-04       4    7    1         0.4480679755E-02      0.1224775002E-01

    ------------------------------------------------
       NWT REQUIRED            3 OUTER ITERATIONS 
       AND A TOTAL OF          5 INNER ITERATIONS.
    ------------------------------------------------

 NO OUTPUT CONTROL FOR STRESS PERIOD   27   TIME STEP   18
 
 SOLVING FOR HEAD 
                                                   Max.-Head-Change                         Max.-Flux-Residual
  Residual-Control   Outer-Iter.   Inner-Iter.     Column Row Layer    Maximum-Head-Change  Column Row Layer    Maximum-Flux-Residual          L2-NORM 
          0                 1           2             4    7     1       0.1215081214E-01       4    7    1         0.6361052857E+00      0.1740347762E+01
          0                 2           2             4    7     1      -0.1181304196E-02       4    7    1        -0.6357605561E-01      0.1739784216E+00
          0                 3           1             4    7     1       0.8038178373E-04       4    7    1         0.4446955890E-02      0.1217321471E-01

    ------------------------------------------------
       NWT REQUIRED            3 OUTER ITERATIONS 
       AND A TOTAL OF          5 INNER ITERATIONS.
    ------------------------------------------------

 NO OUTPUT CONTROL FOR STRESS PERIOD   27   TIME STEP   19
 
 SOLVING FOR HEAD 
                                                   Max.-Head-Change                         Max.-Flux-Residual
  Residual-Control   Outer-Iter.   Inner-Iter.     Column Row Layer    Maximum-Head-Change  Column Row Layer    Maximum-Flux-Residual          L2-NORM 
          0                 1           2             4    7     1       0.1206006496E-01       4    7    1         0.6313376728E+00      0.1729801363E+01
          0                 2           2             4    7     1      -0.1172481705E-02       4    7    1        -0.6309955003E-01      0.1729238613E+00
          0                 3           1             4    7     1       0.7978145712E-04       4    7    1         0.4413625666E-02      0.1209943176E-01

    ------------------------------------------------
       NWT REQUIRED            3 OUTER ITERATIONS 
       AND A TOTAL OF          5 INNER ITERATIONS.
    ------------------------------------------------

 NO OUTPUT CONTROL FOR STRESS PERIOD   27   TIME STEP   20
 
 SOLVING FOR HEAD 
                                                   Max.-Head-Change                         Max.-Flux-Residual
  Residual-Control   Outer-Iter.   Inner-Iter.     Column Row Layer    Maximum-Head-Change  Column Row Layer    Maximum-Flux-Residual          L2-NORM 
          0                 1           2             4    7     1       0.1197036493E-01       4    7    1         0.6266252117E+00      0.1719366287E+01
          0                 2           2             4    7     1      -0.1163761019E-02       4    7    1        -0.6262855670E-01      0.1718804525E+00
          0                 3           1             4    7     1       0.7918805830E-04       4    7    1         0.4380681019E-02      0.1202645626E-01

    ------------------------------------------------
       NWT REQUIRED            3 OUTER ITERATIONS 
       AND A TOTAL OF          5 INNER ITERATIONS.
    ------------------------------------------------

 NO OUTPUT CONTROL FOR STRESS PERIOD   27   TIME STEP   21
 
 SOLVING FOR HEAD 
                                                   Max.-Head-Change                         Max.-Flux-Residual
  Residual-Control   Outer-Iter.   Inner-Iter.     Column Row Layer    Maximum-Head-Change  Column Row Layer    Maximum-Flux-Residual          L2-NORM 
          0                 1           2             4    7     1       0.1188155973E-01       4    7    1         0.6219597010E+00      0.1709040290E+01
          0                 2           2             4    7     1      -0.1155127328E-02       4    7    1        -0.6216225592E-01      0.1708479643E+00
          0                 3           1             4    7     1       0.7860057832E-04       4    7    1         0.4348064582E-02      0.1195421564E-01

    ------------------------------------------------
       NWT REQUIRED            3 OUTER ITERATIONS 
       AND A TOTAL OF          5 INNER ITERATIONS.
    ------------------------------------------------

 NO OUTPUT CONTROL FOR STRESS PERIOD   27   TIME STEP   22
 
 SOLVING FOR HEAD 
                                                   Max.-Head-Change                         Max.-Flux-Residual
  Residual-Control   Outer-Iter.   Inner-Iter.     Column Row Layer    Maximum-Head-Change  Column Row Layer    Maximum-Flux-Residual          L2-NORM 
          0                 1           2             4    7     1       0.1179376916E-01       4    7    1         0.6173479278E+00      0.1698820371E+01
          0                 2           2             4    7     1      -0.1146592282E-02       4    7    1        -0.6170132607E-01      0.1698260872E+00
          0                 3           1             4    7     1       0.7801981110E-04       4    7    1         0.4315823847E-02      0.1188272781E-01

    ------------------------------------------------
       NWT REQUIRED            3 OUTER ITERATIONS 
       AND A TOTAL OF          5 INNER ITERATIONS.
    ------------------------------------------------

 NO OUTPUT CONTROL FOR STRESS PERIOD   27   TIME STEP   23
 
 SOLVING FOR HEAD 
                                                   Max.-Head-Change                         Max.-Flux-Residual
  Residual-Control   Outer-Iter.   Inner-Iter.     Column Row Layer    Maximum-Head-Change  Column Row Layer    Maximum-Flux-Residual          L2-NORM 
          0                 1           2             4    7     1       0.1170697897E-01       4    7    1         0.6127887616E+00      0.1688711424E+01
          0                 2           2             4    7     1      -0.1138154492E-02       4    7    1        -0.6124565412E-01      0.1688153372E+00
          0                 3           1             4    7     1       0.7744566210E-04       4    7    1         0.4283950888E-02      0.1181200855E-01

    ------------------------------------------------
       NWT REQUIRED            3 OUTER ITERATIONS 
       AND A TOTAL OF          5 INNER ITERATIONS.
    ------------------------------------------------

 NO OUTPUT CONTROL FOR STRESS PERIOD   27   TIME STEP   24
 
 SOLVING FOR HEAD 
                                                   Max.-Head-Change                         Max.-Flux-Residual
  Residual-Control   Outer-Iter.   Inner-Iter.     Column Row Layer    Maximum-Head-Change  Column Row Layer    Maximum-Flux-Residual          L2-NORM 
          0                 1           2             4    7     1       0.1162116902E-01       4    7    1         0.6082814630E+00      0.1678702094E+01
          0                 2           2             4    7     1      -0.1129812004E-02       4    7    1        -0.6079516619E-01      0.1678145717E+00
          0                 3           1             4    7     1       0.7687799711E-04       4    7    1         0.4252440538E-02      0.1174199784E-01

    ------------------------------------------------
       NWT REQUIRED            3 OUTER ITERATIONS 
       AND A TOTAL OF          5 INNER ITERATIONS.
    ------------------------------------------------

 NO OUTPUT CONTROL FOR STRESS PERIOD   27   TIME STEP   25
 
 SOLVING FOR HEAD 
                                                   Max.-Head-Change                         Max.-Flux-Residual
  Residual-Control   Outer-Iter.   Inner-Iter.     Column Row Layer    Maximum-Head-Change  Column Row Layer    Maximum-Flux-Residual          L2-NORM 
          0                 1           2             4    7     1       0.1153618843E-01       4    7    1         0.6038176457E+00      0.1668796175E+01
          0                 2           2             4    7     1      -0.1121550146E-02       4    7    1        -0.6034902409E-01      0.1668241395E+00
          0                 3           1             4    7     1       0.7631581904E-04       4    7    1         0.4221234151E-02      0.1167271294E-01

    ------------------------------------------------
       NWT REQUIRED            3 OUTER ITERATIONS 
       AND A TOTAL OF          5 INNER ITERATIONS.
    ------------------------------------------------

 NO OUTPUT CONTROL FOR STRESS PERIOD   27   TIME STEP   26
 
 SOLVING FOR HEAD 
                                                   Max.-Head-Change                         Max.-Flux-Residual
  Residual-Control   Outer-Iter.   Inner-Iter.     Column Row Layer    Maximum-Head-Change  Column Row Layer    Maximum-Flux-Residual          L2-NORM 
          0                 1           2             4    7     1       0.1145216212E-01       4    7    1         0.5994041718E+00      0.1658991389E+01
          0                 2           2             4    7     1      -0.1113381065E-02       4    7    1        -0.5990791366E-01      0.1658438291E+00
          0                 3           1             4    7     1       0.7575995412E-04       4    7    1         0.4190379745E-02      0.1160410055E-01

    ------------------------------------------------
       NWT REQUIRED            3 OUTER ITERATIONS 
       AND A TOTAL OF          5 INNER ITERATIONS.
    ------------------------------------------------

 NO OUTPUT CONTROL FOR STRESS PERIOD   27   TIME STEP   27
 
 SOLVING FOR HEAD 
                                                   Max.-Head-Change                         Max.-Flux-Residual
  Residual-Control   Outer-Iter.   Inner-Iter.     Column Row Layer    Maximum-Head-Change  Column Row Layer    Maximum-Flux-Residual          L2-NORM 
          0                 1           2             4    7     1       0.1136893949E-01       4    7    1         0.5950328327E+00      0.1649280697E+01
          0                 2           2             4    7     1      -0.1105290118E-02       4    7    1        -0.5947101449E-01      0.1648730024E+00
          0                 3           1             4    7     1       0.7520940534E-04       4    7    1         0.4159819864E-02      0.1153620011E-01

    ------------------------------------------------
       NWT REQUIRED            3 OUTER ITERATIONS 
       AND A TOTAL OF          5 INNER ITERATIONS.
    ------------------------------------------------

 NO OUTPUT CONTROL FOR STRESS PERIOD   27   TIME STEP   28
 
 SOLVING FOR HEAD 
                                                   Max.-Head-Change                         Max.-Flux-Residual
  Residual-Control   Outer-Iter.   Inner-Iter.     Column Row Layer    Maximum-Head-Change  Column Row Layer    Maximum-Flux-Residual          L2-NORM 
          0                 1           2             4    7     1       0.1128678115E-01       4    7    1         0.5907178496E+00      0.1639679232E+01
          0                 2           2             4    7     1      -0.1097302642E-02       4    7    1        -0.5903974790E-01      0.1639130877E+00
          0                 3           1             4    7     1       0.7466589760E-04       4    7    1         0.4129653979E-02      0.1146905434E-01

    ------------------------------------------------
       NWT REQUIRED            3 OUTER ITERATIONS 
       AND A TOTAL OF          5 INNER ITERATIONS.
    ------------------------------------------------

 NO OUTPUT CONTROL FOR STRESS PERIOD   27   TIME STEP   29
 
 SOLVING FOR HEAD 
                                                   Max.-Head-Change                         Max.-Flux-Residual
  Residual-Control   Outer-Iter.   Inner-Iter.     Column Row Layer    Maximum-Head-Change  Column Row Layer    Maximum-Flux-Residual          L2-NORM 
          0                 1           2             4    7     1       0.1120539237E-01       4    7    1         0.5864433613E+00      0.1630166949E+01
          0                 2           2             4    7     1      -0.1089389984E-02       4    7    1        -0.5861252866E-01      0.1629621564E+00
          0                 3           1             4    7     1       0.7412748070E-04       4    7    1         0.4099771210E-02      0.1140253818E-01

    ------------------------------------------------
       NWT REQUIRED            3 OUTER ITERATIONS 
       AND A TOTAL OF          5 INNER ITERATIONS.
    ------------------------------------------------

 NO OUTPUT CONTROL FOR STRESS PERIOD   27   TIME STEP   30



 STREAM LISTING     PERIOD     27   STEP       30

 LAYER ROW COL. STREAM  RCH.  FLOW INTO     FLOW TO   FLOW OUT OF   OVRLND.     DIRECT     STREAM       STREAM     STREAM     STREAM   STREAMBED  STREAMBED
                SEG.NO.  NO.  STRM. RCH.    AQUIFER    STRM. RCH.    RUNOFF     PRECIP       ET          HEAD       DEPTH      WIDTH   CONDCTNC.   GRADIENT

   1    1    1     1     1    1.9000E+01  2.1427E-01   1.8786E+01  0.000E+00  0.000E+00  0.000E+00  1.09413E+03  1.082E+00  1.166E+01  5.249E-02  1.361E+00
   1    2    2     1     2    1.8786E+01  3.3054E-01   1.8455E+01  0.000E+00  0.000E+00  0.000E+00  1.08914E+03  1.077E+00  1.158E+01  8.107E-02  1.359E+00
   1    3    3     1     3    1.8455E+01  2.8064E-01   1.8175E+01  0.000E+00  0.000E+00  0.000E+00  1.08349E+03  1.072E+00  1.149E+01  6.892E-02  1.357E+00
   1    3    4     1     4    1.8175E+01  2.5740E-01   1.7917E+01  0.000E+00  0.000E+00  0.000E+00  1.07848E+03  1.068E+00  1.140E+01  6.328E-02  1.356E+00
   1    4    5     2     1    1.5917E+01  3.0542E-01   1.5612E+01  0.000E+00  0.000E+00  0.000E+00  1.07285E+03  9.157E-01  1.200E+01  7.800E-02  1.305E+00
   1    5    6     2     2    1.5612E+01  2.3438E-01   1.5377E+01  0.000E+00  0.000E+00  0.000E+00  1.06742E+03  9.063E-01  1.200E+01  6.000E-02  1.302E+00
   1    6    6     2     3    1.5377E+01  2.3388E-01   1.5143E+01  0.000E+00  0.000E+00  0.000E+00  1.06269E+03  8.980E-01  1.200E+01  6.000E-02  1.299E+00
   1    7    6     2     4    1.5143E+01  2.3338E-01   1.4910E+01  0.000E+00  0.000E+00  0.000E+00  1.05797E+03  8.897E-01  1.200E+01  6.000E-02  1.297E+00
   1    8    6     2     5    1.4910E+01  2.3289E-01   1.4677E+01  0.000E+00  0.000E+00  0.000E+00  1.05324E+03  8.814E-01  1.200E+01  6.000E-02  1.294E+00
   1    3    5     3     1    2.0000E+00  2.8252E-01   1.7175E+00  0.000E+00  0.000E+00  0.000E+00  1.07555E+03  1.909E+00  9.636E+00  7.227E-02  1.955E+00
   1    3    6     3     2    1.7175E+00  2.4905E-01   1.4684E+00  0.000E+00  0.000E+00  0.000E+00  1.07264E+03  1.727E+00  8.909E+00  6.682E-02  1.864E+00
   1    3    7     3     3    1.4684E+00  1.9718E-01   1.2712E+00  0.000E+00  0.000E+00  0.000E+00  1.06987E+03  1.555E+00  8.218E+00  5.547E-02  1.777E+00
   1    4    8     3     4    1.2712E+00  2.2567E-01   1.0456E+00  0.000E+00  0.000E+00  0.000E+00  1.06682E+03  1.364E+00  7.455E+00  6.709E-02  1.682E+00
   1    5    8     3     5    1.0456E+00  1.5790E-01   8.8768E-01  0.000E+00  0.000E+00  0.000E+00  1.06362E+03  1.164E+00  6.655E+00  4.991E-02  1.582E+00
   1    6    8     3     6    8.8768E-01  5.5980E-02   8.3170E-01  0.000E+00  0.000E+00  0.000E+00  1.06158E+03  1.036E+00  6.145E+00  1.844E-02  1.518E+00
   1    5   10     4     1    1.0000E+01  9.0919E-02   9.9091E+00  0.000E+00  0.000E+00  0.000E+00  1.07836E+03  6.368E-01  1.000E+01  2.500E-02  1.212E+00
   1    5    9     4     2    9.9091E+00  1.8158E-01   9.7275E+00  0.000E+00  0.000E+00  0.000E+00  1.07154E+03  6.315E-01  1.000E+01  5.000E-02  1.211E+00
   1    6    8     4     3    9.7275E+00  1.2689E-01   9.6006E+00  0.000E+00  0.000E+00  0.000E+00  1.06381E+03  6.256E-01  1.000E+01  3.500E-02  1.209E+00
   1    6    8     5     1    1.0432E+01  2.2686E-01   1.0205E+01  0.000E+00  0.000E+00  0.000E+00  1.05868E+03  6.790E-01  1.542E+01  6.166E-02  1.226E+00
   1    7    7     5     2    1.0205E+01  2.7894E-01   9.9265E+00  0.000E+00  0.000E+00  0.000E+00  1.05417E+03  6.732E-01  1.519E+01  7.594E-02  1.224E+00
   1    8    7     5     3    9.9265E+00  1.9221E-01   9.7343E+00  0.000E+00  0.000E+00  0.000E+00  1.04992E+03  6.676E-01  1.497E+01  5.241E-02  1.223E+00
   1    8    6     5     4    9.7343E+00  1.3577E-01   9.5985E+00  0.000E+00  0.000E+00  0.000E+00  1.04691E+03  6.637E-01  1.482E+01  3.706E-02  1.221E+00
   1    9    6     6     1    2.4276E+01  2.5176E-01   2.4024E+01  0.000E+00  0.000E+00  0.000E+00  1.04392E+03  1.196E+00  1.200E+01  6.000E-02  1.399E+00
   1   10    7     6     2    2.4024E+01  2.5131E-01   2.3773E+01  0.000E+00  0.000E+00  0.000E+00  1.03937E+03  1.188E+00  1.200E+01  6.000E-02  1.396E+00
   1   11    7     6     3    2.3773E+01  2.5086E-01   2.3522E+01  0.000E+00  0.000E+00  0.000E+00  1.03482E+03  1.181E+00  1.200E+01  6.000E-02  1.394E+00
   1   12    7     6     4    2.3522E+01  2.5041E-01   2.3271E+01  0.000E+00  0.000E+00  0.000E+00  1.03026E+03  1.173E+00  1.200E+01  6.000E-02  1.391E+00
   1   13    7     6     5    2.3271E+01  4.3164E-03   2.3267E+01  0.000E+00  0.000E+00  0.000E+00  1.02708E+03  1.170E+00  1.200E+01  2.400E-02  5.995E-02
   1   14    9     7     1    1.5000E+02  1.3406E+00   1.4866E+02  0.000E+00  0.000E+00  0.000E+00  1.03987E+03  2.288E+00  5.529E+01  5.593E-01  7.990E-01
   1   13    8     7     2    1.4866E+02  1.8738E+00   1.4679E+02  0.000E+00  0.000E+00  0.000E+00  1.03478E+03  2.279E+00  5.526E+01  6.148E-01  1.016E+00
   1   13    7     7     3    1.4679E+02  1.5583E+00   1.4523E+02  0.000E+00  0.000E+00  0.000E+00  1.02969E+03  2.270E+00  5.522E+01  5.584E-01  9.302E-01
   1   13    6     8     1    1.6849E+02  1.0085E+00   1.6749E+02  0.000E+00  0.000E+00  0.000E+00  1.02481E+03  2.939E+00  4.262E+01  4.343E-01  7.741E-01
   1   13    5     8     2    1.6749E+02  2.6445E-01   1.6722E+02  0.000E+00  0.000E+00  0.000E+00  1.01856E+03  2.935E+00  4.256E+01  4.337E-01  2.033E-01
   1   13    4     8     3    1.6722E+02 -2.1488E+00   1.6937E+02  0.000E+00  0.000E+00  0.000E+00  1.01232E+03  2.941E+00  4.265E+01  4.346E+00 -1.648E-01
   1   13    3     8     4    1.6937E+02 -3.5370E+00   1.7291E+02  0.000E+00  0.000E+00  0.000E+00  1.00608E+03  2.960E+00  4.291E+01  4.373E+00 -2.696E-01
   1   13    2     8     5    1.7291E+02 -2.5518E+00   1.7546E+02  0.000E+00  0.000E+00  0.000E+00  9.99854E+02  2.979E+00  4.320E+01  4.402E+00 -1.932E-01
   1   13    1     8     6    1.7546E+02 -1.9781E+00   1.7744E+02  0.000E+00  0.000E+00  0.000E+00  9.94869E+02  2.994E+00  4.341E+01  2.654E+00 -2.484E-01





UNSATURATED ZONE PACKAGE VOLUMETRIC BUDGET FOR  TIME STEP    30 STRESS PERIOD   27
  ------------------------------------------------------------------------------



     CUMULATIVE VOLUMES      L**3       RATES FOR THIS TIME STEP      L**3/T
     ------------------                 ------------------------

           IN:                                      IN:
           ---                                      ---
        INFILTRATION =  1242192093.5334          INFILTRATION =           4.4075

          OUT:                                     OUT:
          ----                                     ----
              UZF ET =  1003719667.1774                UZF ET =           0.7253
        UZF RECHARGE =   147688497.8098          UZF RECHARGE =           0.0808

            IN - OUT =    90783928.5463              IN - OUT =           3.6014

          STORAGE:                                 STORAGE:
          --------                                 --------
      STORAGE CHANGE =    90785432.6208        STORAGE CHANGE =           3.6014

 PERCENT DISCREPANCY IS DIFFERENCE BETWEEN IN-OUT MINUS CHANGE IN STORAGE
 DIVIDED BY THE AVERAGE OF IN AND OUT TIMES 100

 PERCENT DISCREPANCY =          -0.00     PERCENT DISCREPANCY =           0.00






1
  VOLUMETRIC BUDGET FOR AGRICULTURAL FIELDS AT TIME STEP   30, STRESS PERIOD  27
  ------------------------------------------------------------------------------

     CUMULATIVE VOLUMES      L**3       RATES FOR THIS TIME STEP      L**3/T
     ------------------                 ------------------------

           IN:                                      IN:
           ---                                      ---
               AG WELLS  =   940732288.0000                 AG WELLS  =           0.0000
      DIVERSION SEGMENTS =           0.0000        DIVERSION SEGMENTS =           0.0000
           GW IRRIGATION =           0.0000             GW IRRIGATION =           0.0000
           SW IRRIGATION =           0.0000             SW IRRIGATION =           0.0000
        SYSTEM LOSSES GW =           0.0000          SYSTEM LOSSES GW =           0.0000
        SYSTEM LOSSES SW =           0.0000          SYSTEM LOSSES SW =           0.0000

                TOTAL IN =   940732288.0000                  TOTAL IN =           0.0000

          OUT:                                     OUT:
          ----                                     ----
               AG WELLS  =           0.0000                 AG WELLS  =           0.0000
      DIVERSION SEGMENTS =           0.0000        DIVERSION SEGMENTS =           0.0000
           GW IRRIGATION =   940732288.0000             GW IRRIGATION =           0.0000
           SW IRRIGATION =           0.0000             SW IRRIGATION =           0.0000
        SYSTEM LOSSES GW =           0.0000          SYSTEM LOSSES GW =           0.0000
        SYSTEM LOSSES SW =           0.0000          SYSTEM LOSSES SW =           0.0000

               TOTAL OUT =   940732288.0000                 TOTAL OUT =           0.0000

                IN - OUT =           0.0000                  IN - OUT =           0.0000

     PERCENT DISCREPANCY =           0.00         PERCENT DISCREPANCY =           0.00



1
  VOLUMETRIC BUDGET FOR ENTIRE MODEL AT END OF TIME STEP   30, STRESS PERIOD  27
  ------------------------------------------------------------------------------

     CUMULATIVE VOLUMES      L**3       RATES FOR THIS TIME STEP      L**3/T
     ------------------                 ------------------------

           IN:                                      IN:
           ---                                      ---
             STORAGE     =  1235922816.0000               STORAGE     =           4.8503
       CONSTANT HEAD     =           0.0000         CONSTANT HEAD     =           0.0000
     HEAD DEP BOUNDS     =    19548526.0000       HEAD DEP BOUNDS     =           0.2861
      STREAM LEAKAGE     =   846709696.0000        STREAM LEAKAGE     =          11.7785
        UZF RECHARGE     =   147688368.0000          UZF RECHARGE     =       8.0798E-02
               GW ET     =           0.0000                 GW ET     =           0.0000
     SURFACE LEAKAGE     =           0.0000       SURFACE LEAKAGE     =           0.0000
           AG WELLS      =           0.0000             AG WELLS      =           0.0000

                TOTAL IN =  2249869568.0000                  TOTAL IN =          16.9957

          OUT:                                     OUT:
          ----                                     ----
             STORAGE     =   561409984.0000               STORAGE     =           6.4911
       CONSTANT HEAD     =           0.0000         CONSTANT HEAD     =           0.0000
     HEAD DEP BOUNDS     =    20108434.0000       HEAD DEP BOUNDS     =           0.2893
      STREAM LEAKAGE     =   710322048.0000        STREAM LEAKAGE     =          10.2157
        UZF RECHARGE     =           0.0000          UZF RECHARGE     =           0.0000
               GW ET     =    17288296.0000                 GW ET     =           0.0000
     SURFACE LEAKAGE     =           0.0000       SURFACE LEAKAGE     =           0.0000
           AG WELLS      =   940732288.0000             AG WELLS      =           0.0000

               TOTAL OUT =  2249861120.0000                 TOTAL OUT =          16.9962

                IN - OUT =        8448.0000                  IN - OUT =      -4.6730E-04

     PERCENT DISCREPANCY =           0.00         PERCENT DISCREPANCY =          -0.00






         TIME SUMMARY AT END OF TIME STEP   30 IN STRESS PERIOD   27
                    SECONDS     MINUTES      HOURS       DAYS        YEARS
                    -----------------------------------------------------------
   TIME STEP LENGTH  87667.      1461.1      24.352      1.0147     2.77799E-03
 STRESS PERIOD TIME 2.63000E+06  43833.      730.56      30.440     8.33397E-02
         TOTAL TIME 6.84668E+07 1.14111E+06  19019.      792.44      2.1696    
1
1
                            STRESS PERIOD NO.   28, LENGTH =   2630000.    
                            -----------------------------------------------

                              NUMBER OF TIME STEPS =    30

                               MULTIPLIER FOR DELT =     1.000

                            INITIAL TIME STEP SIZE =   87666.66    

 REUSING NON-PARAMETER GHB CELLS FROM LAST STRESS PERIOD

      2 GHB CELLS

 REUSING STREAM SEGMENT DATA FROM LAST STRESS PERIOD



            AREAL INFILTRATION RATE
 READING ON UNIT   19 WITH FORMAT: (10F4.0)            

            1           2           3           4           5           6           7           8           9          10
 ........................................................................................................................
   1   1.2000E-09   0.000       0.000       0.000       0.000       0.000       0.000       0.000       0.000       0.000    
   2   2.1000E-09  2.0000E-09  8.0000E-10  8.5000E-09   0.000       0.000       0.000       0.000       0.000       0.000    
   3   5.0000E-10  1.1000E-09  8.8000E-09  5.5000E-09   0.000       0.000       0.000       0.000       0.000       0.000    
   4   8.5000E-09  1.1000E-09  1.1000E-09  1.1000E-09  2.0000E-09   0.000       0.000       0.000       0.000       0.000    
   5   8.5000E-09  1.1000E-09  1.1000E-09  1.1000E-09  1.1000E-09   0.000       0.000       0.000       0.000       0.000    
   6   8.5000E-09  5.2000E-09  2.1000E-09  1.1000E-09  1.5000E-09   0.000       0.000       0.000       0.000       0.000    
   7   8.5000E-09  5.2000E-09  2.1000E-09  1.2000E-09  2.0000E-09   0.000       0.000       0.000       0.000       0.000    
   8   5.0000E-10  5.2000E-09  2.1000E-09  1.2000E-09  5.0000E-09   0.000       0.000       0.000       0.000       0.000    
   9   5.0000E-10  5.2000E-09  2.1000E-09  1.2000E-09  5.0000E-09   0.000       0.000       0.000       0.000       0.000    
  10   5.0000E-10  5.2000E-09  2.1000E-09  1.2000E-09  5.8000E-09   0.000       0.000       0.000       0.000       0.000    
  11   1.0000E-10  1.1000E-09  1.1000E-09  1.2000E-09  5.0000E-09   0.000       0.000       0.000       0.000       0.000    
  12   1.1000E-09  1.1000E-09  1.1000E-09  1.1000E-09  2.0000E-09   0.000       0.000       0.000       0.000       0.000    
  13   1.1000E-09  2.2000E-09  2.2000E-09  2.1000E-09  1.0000E-09   0.000       0.000       0.000       0.000       0.000    
  14   2.0000E-10  5.5000E-09  5.5000E-09  5.2000E-09  1.0000E-09   0.000       0.000       0.000       0.000       0.000    
  15    0.000      8.8000E-09  8.8000E-09   0.000       0.000       0.000       0.000       0.000       0.000       0.000    

                  ET RATE =  5.000000E-10

 USING ET EXTINCTION DEPTH FROM PREVIOUS STRESS PERIOD. CURRENT PERIOD IS:      28

 USING EXTINCTION WATER CONTENT FROM PREVIOUS STRESS PERIOD. CURRENT PERIOD IS:      28

 USING AIR ENTRY PRESSURE FROM PREVIOUS STRESS PERIOD. CURRENT PERIOD IS:      28

 USING ROOT PRESSURE HEAD FROM PREVIOUS STRESS PERIOD. CURRENT PERIOD IS:      28

 USING ROOT ACTIVITY FROM PREVIOUS STRESS PERIOD. CURRENT PERIOD IS:      28

 PROCESSING AG STRESS PERIOD DATA

 READING AG STRESS PERIOD DATA

 READING IRRIGATION WELL

 END PROCESSING AG STRESS PERIOD DATA OPTIONS
 
 SOLVING FOR HEAD 
                                                   Max.-Head-Change                         Max.-Flux-Residual
  Residual-Control   Outer-Iter.   Inner-Iter.     Column Row Layer    Maximum-Head-Change  Column Row Layer    Maximum-Flux-Residual          L2-NORM 
          0                 1           2             4    7     1       0.1112490003E-01       4    7    1         0.5822161166E+00      0.1620751053E+01
          0                 2           2             4    7     1      -0.1081564478E-02       4    7    1        -0.5819003130E-01      0.1620207898E+00
          0                 3           1             4    7     1       0.7359499447E-04       4    7    1         0.4070218730E-02      0.1133666129E-01

    ------------------------------------------------
       NWT REQUIRED            3 OUTER ITERATIONS 
       AND A TOTAL OF          5 INNER ITERATIONS.
    ------------------------------------------------

 NO OUTPUT CONTROL FOR STRESS PERIOD   28   TIME STEP    1
 
 SOLVING FOR HEAD 
                                                   Max.-Head-Change                         Max.-Flux-Residual
  Residual-Control   Outer-Iter.   Inner-Iter.     Column Row Layer    Maximum-Head-Change  Column Row Layer    Maximum-Flux-Residual          L2-NORM 
          0                 1           2             4    7     1       0.1104529336E-01       4    7    1         0.5780353509E+00      0.1611436616E+01
          0                 2           2             4    7     1      -0.1073825078E-02       4    7    1        -0.5777217935E-01      0.1610896188E+00
          0                 3           1             4    7     1       0.7306836662E-04       4    7    1         0.4040991161E-02      0.1127152187E-01

    ------------------------------------------------
       NWT REQUIRED            3 OUTER ITERATIONS 
       AND A TOTAL OF          5 INNER ITERATIONS.
    ------------------------------------------------

 NO OUTPUT CONTROL FOR STRESS PERIOD   28   TIME STEP    2
 
 SOLVING FOR HEAD 
                                                   Max.-Head-Change                         Max.-Flux-Residual
  Residual-Control   Outer-Iter.   Inner-Iter.     Column Row Layer    Maximum-Head-Change  Column Row Layer    Maximum-Flux-Residual          L2-NORM 
          0                 1           2             4    7     1       0.1096641733E-01       4    7    1         0.5738931613E+00      0.1602209970E+01
          0                 2           2             4    7     1      -0.1066156711E-02       4    7    1        -0.5735818295E-01      0.1601672511E+00
          0                 3           1             4    7     1       0.7254657247E-04       4    7    1         0.4012033278E-02      0.1120699618E-01

    ------------------------------------------------
       NWT REQUIRED            3 OUTER ITERATIONS 
       AND A TOTAL OF          5 INNER ITERATIONS.
    ------------------------------------------------

 NO OUTPUT CONTROL FOR STRESS PERIOD   28   TIME STEP    3
 
 SOLVING FOR HEAD 
                                                   Max.-Head-Change                         Max.-Flux-Residual
  Residual-Control   Outer-Iter.   Inner-Iter.     Column Row Layer    Maximum-Head-Change  Column Row Layer    Maximum-Flux-Residual          L2-NORM 
          0                 1           2             4    7     1       0.1088853605E-01       4    7    1         0.5698035431E+00      0.1593076618E+01
          0                 2           2             4    7     1      -0.1058585055E-02       4    7    1        -0.5694944093E-01      0.1592542145E+00
          0                 3           1             4    7     1       0.7203135913E-04       4    7    1         0.3983442939E-02      0.1114312023E-01

    ------------------------------------------------
       NWT REQUIRED            3 OUTER ITERATIONS 
       AND A TOTAL OF          5 INNER ITERATIONS.
    ------------------------------------------------

 NO OUTPUT CONTROL FOR STRESS PERIOD   28   TIME STEP    4
 
 SOLVING FOR HEAD 
                                                   Max.-Head-Change                         Max.-Flux-Residual
  Residual-Control   Outer-Iter.   Inner-Iter.     Column Row Layer    Maximum-Head-Change  Column Row Layer    Maximum-Flux-Residual          L2-NORM 
          0                 1           2             4    7     1       0.1081136259E-01       4    7    1         0.5657508116E+00      0.1584037201E+01
          0                 2           2             4    7     1      -0.1051082215E-02       4    7    1        -0.5654438558E-01      0.1583505837E+00
          0                 3           1             4    7     1       0.7152082838E-04       4    7    1         0.3955110475E-02      0.1107991024E-01

    ------------------------------------------------
       NWT REQUIRED            3 OUTER ITERATIONS 
       AND A TOTAL OF          5 INNER ITERATIONS.
    ------------------------------------------------

 NO OUTPUT CONTROL FOR STRESS PERIOD   28   TIME STEP    5
 
 SOLVING FOR HEAD 
                                                   Max.-Head-Change                         Max.-Flux-Residual
  Residual-Control   Outer-Iter.   Inner-Iter.     Column Row Layer    Maximum-Head-Change  Column Row Layer    Maximum-Flux-Residual          L2-NORM 
          0                 1           2             4    7     1       0.1073501947E-01       4    7    1         0.5617421245E+00      0.1575080721E+01
          0                 2           2             4    7     1      -0.1043660100E-02       4    7    1        -0.5614373238E-01      0.1574552626E+00
          0                 3           1             4    7     1       0.7101579046E-04       4    7    1         0.3927085915E-02      0.1101725333E-01

    ------------------------------------------------
       NWT REQUIRED            3 OUTER ITERATIONS 
       AND A TOTAL OF          5 INNER ITERATIONS.
    ------------------------------------------------

 NO OUTPUT CONTROL FOR STRESS PERIOD   28   TIME STEP    6
 
 SOLVING FOR HEAD 
                                                   Max.-Head-Change                         Max.-Flux-Residual
  Residual-Control   Outer-Iter.   Inner-Iter.     Column Row Layer    Maximum-Head-Change  Column Row Layer    Maximum-Flux-Residual          L2-NORM 
          0                 1           2             4    7     1       0.1065949579E-01       4    7    1         0.5577764886E+00      0.1566215132E+01
          0                 2           2             4    7     1      -0.1036317653E-02       4    7    1        -0.5574738200E-01      0.1565690381E+00
          0                 3           1             4    7     1       0.7051617365E-04       4    7    1         0.3899362330E-02      0.1095530515E-01

    ------------------------------------------------
       NWT REQUIRED            3 OUTER ITERATIONS 
       AND A TOTAL OF          5 INNER ITERATIONS.
    ------------------------------------------------

 NO OUTPUT CONTROL FOR STRESS PERIOD   28   TIME STEP    7
 
 SOLVING FOR HEAD 
                                                   Max.-Head-Change                         Max.-Flux-Residual
  Residual-Control   Outer-Iter.   Inner-Iter.     Column Row Layer    Maximum-Head-Change  Column Row Layer    Maximum-Flux-Residual          L2-NORM 
          0                 1           2             4    7     1       0.1058477655E-01       4    7    1         0.5538533396E+00      0.1557438785E+01
          0                 2           2             4    7     1      -0.1029053413E-02       4    7    1        -0.5535527807E-01      0.1556917244E+00
          0                 3           1             4    7     1       0.7002187833E-04       4    7    1         0.3871935775E-02      0.1089388920E-01

    ------------------------------------------------
       NWT REQUIRED            3 OUTER ITERATIONS 
       AND A TOTAL OF          5 INNER ITERATIONS.
    ------------------------------------------------

 NO OUTPUT CONTROL FOR STRESS PERIOD   28   TIME STEP    8
 
 SOLVING FOR HEAD 
                                                   Max.-Head-Change                         Max.-Flux-Residual
  Residual-Control   Outer-Iter.   Inner-Iter.     Column Row Layer    Maximum-Head-Change  Column Row Layer    Maximum-Flux-Residual          L2-NORM 
          0                 1           2             4    7     1       0.1051071506E-01       4    7    1         0.5499645539E+00      0.1548744233E+01
          0                 2           2             4    7     1      -0.1021853120E-02       4    7    1        -0.5496660860E-01      0.1548226041E+00
          0                 3           1             4    7     1       0.6953193436E-04       4    7    1         0.3844749448E-02      0.1083294718E-01

    ------------------------------------------------
       NWT REQUIRED            3 OUTER ITERATIONS 
       AND A TOTAL OF          5 INNER ITERATIONS.
    ------------------------------------------------

 NO OUTPUT CONTROL FOR STRESS PERIOD   28   TIME STEP    9
 
 SOLVING FOR HEAD 
                                                   Max.-Head-Change                         Max.-Flux-Residual
  Residual-Control   Outer-Iter.   Inner-Iter.     Column Row Layer    Maximum-Head-Change  Column Row Layer    Maximum-Flux-Residual          L2-NORM 
          0                 1           2             4    7     1       0.1043757353E-01       4    7    1         0.5461245621E+00      0.1540138330E+01
          0                 2           2             4    7     1      -0.1014742267E-02       4    7    1        -0.5458281595E-01      0.1539623666E+00
          0                 3           1             4    7     1       0.6904807657E-04       4    7    1         0.3817904271E-02      0.1077289520E-01

    ------------------------------------------------
       NWT REQUIRED            3 OUTER ITERATIONS 
       AND A TOTAL OF          5 INNER ITERATIONS.
    ------------------------------------------------

 NO OUTPUT CONTROL FOR STRESS PERIOD   28   TIME STEP   10
 
 SOLVING FOR HEAD 
                                                   Max.-Head-Change                         Max.-Flux-Residual
  Residual-Control   Outer-Iter.   Inner-Iter.     Column Row Layer    Maximum-Head-Change  Column Row Layer    Maximum-Flux-Residual          L2-NORM 
          0                 1           2             4    7     1       0.1036506357E-01       4    7    1         0.5423175777E+00      0.1531613917E+01
          0                 2           2             4    7     1      -0.1007692816E-02       4    7    1        -0.5420232229E-01      0.1531102645E+00
          0                 3           1             4    7     1       0.6856839665E-04       4    7    1         0.3791289815E-02      0.1071327520E-01

    ------------------------------------------------
       NWT REQUIRED            3 OUTER ITERATIONS 
       AND A TOTAL OF          5 INNER ITERATIONS.
    ------------------------------------------------

 NO OUTPUT CONTROL FOR STRESS PERIOD   28   TIME STEP   11
 
 SOLVING FOR HEAD 
                                                   Max.-Head-Change                         Max.-Flux-Residual
  Residual-Control   Outer-Iter.   Inner-Iter.     Column Row Layer    Maximum-Head-Change  Column Row Layer    Maximum-Flux-Residual          L2-NORM 
          0                 1           2             4    7     1       0.1029344956E-01       4    7    1         0.5385580305E+00      0.1523175854E+01
          0                 2           2             4    7     1      -0.1000730469E-02       4    7    1        -0.5382656983E-01      0.1522668178E+00
          0                 3           1             4    7     1       0.6809464374E-04       4    7    1         0.3765007003E-02      0.1065427810E-01

    ------------------------------------------------
       NWT REQUIRED            3 OUTER ITERATIONS 
       AND A TOTAL OF          5 INNER ITERATIONS.
    ------------------------------------------------

 NO OUTPUT CONTROL FOR STRESS PERIOD   28   TIME STEP   12
 
 SOLVING FOR HEAD 
                                                   Max.-Head-Change                         Max.-Flux-Residual
  Residual-Control   Outer-Iter.   Inner-Iter.     Column Row Layer    Maximum-Head-Change  Column Row Layer    Maximum-Flux-Residual          L2-NORM 
          0                 1           2             4    7     1       0.1022244256E-01       4    7    1         0.5348302450E+00      0.1514816752E+01
          0                 2           2             4    7     1      -0.9938271373E-03       4    7    1        -0.5345399183E-01      0.1514312630E+00
          0                 3           1             4    7     1       0.6762490622E-04       4    7    1         0.3738946227E-02      0.1059583090E-01

    ------------------------------------------------
       NWT REQUIRED            3 OUTER ITERATIONS 
       AND A TOTAL OF          5 INNER ITERATIONS.
    ------------------------------------------------

 NO OUTPUT CONTROL FOR STRESS PERIOD   28   TIME STEP   13
 
 SOLVING FOR HEAD 
                                                   Max.-Head-Change                         Max.-Flux-Residual
  Residual-Control   Outer-Iter.   Inner-Iter.     Column Row Layer    Maximum-Head-Change  Column Row Layer    Maximum-Flux-Residual          L2-NORM 
          0                 1           2             4    7     1       0.1015230981E-01       4    7    1         0.5311486244E+00      0.1506541208E+01
          0                 2           2             4    7     1      -0.9870088007E-03       4    7    1        -0.5308602790E-01      0.1506040727E+00
          0                 3           1             4    7     1       0.6716095277E-04       4    7    1         0.3713208196E-02      0.1053794893E-01

    ------------------------------------------------
       NWT REQUIRED            3 OUTER ITERATIONS 
       AND A TOTAL OF          5 INNER ITERATIONS.
    ------------------------------------------------

 NO OUTPUT CONTROL FOR STRESS PERIOD   28   TIME STEP   14
 
 SOLVING FOR HEAD 
                                                   Max.-Head-Change                         Max.-Flux-Residual
  Residual-Control   Outer-Iter.   Inner-Iter.     Column Row Layer    Maximum-Head-Change  Column Row Layer    Maximum-Flux-Residual          L2-NORM 
          0                 1           2             4    7     1       0.1008276121E-01       4    7    1         0.5274976397E+00      0.1498346194E+01
          0                 2           2             4    7     1      -0.9802472545E-03       4    7    1        -0.5272112590E-01      0.1497849069E+00
          0                 3           1             4    7     1       0.6670086312E-04       4    7    1         0.3687684333E-02      0.1048063947E-01

    ------------------------------------------------
       NWT REQUIRED            3 OUTER ITERATIONS 
       AND A TOTAL OF          5 INNER ITERATIONS.
    ------------------------------------------------

 NO OUTPUT CONTROL FOR STRESS PERIOD   28   TIME STEP   15
 
 SOLVING FOR HEAD 
                                                   Max.-Head-Change                         Max.-Flux-Residual
  Residual-Control   Outer-Iter.   Inner-Iter.     Column Row Layer    Maximum-Head-Change  Column Row Layer    Maximum-Flux-Residual          L2-NORM 
          0                 1           2             4    7     1       0.1001392886E-01       4    7    1         0.5238842878E+00      0.1490225414E+01
          0                 2           2             4    7     1      -0.9735553433E-03       4    7    1        -0.5235998518E-01      0.1489732105E+00
          0                 3           1             4    7     1       0.6624551215E-04       4    7    1         0.3662423582E-02      0.1042386910E-01

    ------------------------------------------------
       NWT REQUIRED            3 OUTER ITERATIONS 
       AND A TOTAL OF          5 INNER ITERATIONS.
    ------------------------------------------------

 NO OUTPUT CONTROL FOR STRESS PERIOD   28   TIME STEP   16
 
 SOLVING FOR HEAD 
                                                   Max.-Head-Change                         Max.-Flux-Residual
  Residual-Control   Outer-Iter.   Inner-Iter.     Column Row Layer    Maximum-Head-Change  Column Row Layer    Maximum-Flux-Residual          L2-NORM 
          0                 1           2             4    7     1       0.9945800777E-02       4    7    1         0.5203080726E+00      0.1482188668E+01
          0                 2           2             4    7     1      -0.9669319021E-03       4    7    1        -0.5200255616E-01      0.1481698910E+00
          0                 3           1             4    7     1       0.6579482009E-04       4    7    1         0.3637422443E-02      0.1036768230E-01

    ------------------------------------------------
       NWT REQUIRED            3 OUTER ITERATIONS 
       AND A TOTAL OF          5 INNER ITERATIONS.
    ------------------------------------------------

 NO OUTPUT CONTROL FOR STRESS PERIOD   28   TIME STEP   17
 
 SOLVING FOR HEAD 
                                                   Max.-Head-Change                         Max.-Flux-Residual
  Residual-Control   Outer-Iter.   Inner-Iter.     Column Row Layer    Maximum-Head-Change  Column Row Layer    Maximum-Flux-Residual          L2-NORM 
          0                 1           2             4    7     1       0.9878366566E-02       4    7    1         0.5167683727E+00      0.1474221994E+01
          0                 2           2             4    7     1      -0.9603759191E-03       4    7    1        -0.5164877673E-01      0.1473735835E+00
          0                 3           1             4    7     1       0.6534871807E-04       4    7    1         0.3612676574E-02      0.1031195358E-01

    ------------------------------------------------
       NWT REQUIRED            3 OUTER ITERATIONS 
       AND A TOTAL OF          5 INNER ITERATIONS.
    ------------------------------------------------

 NO OUTPUT CONTROL FOR STRESS PERIOD   28   TIME STEP   18
 
 SOLVING FOR HEAD 
                                                   Max.-Head-Change                         Max.-Flux-Residual
  Residual-Control   Outer-Iter.   Inner-Iter.     Column Row Layer    Maximum-Head-Change  Column Row Layer    Maximum-Flux-Residual          L2-NORM 
          0                 1           2             4    7     1       0.9811750458E-02       4    7    1         0.5132719957E+00      0.1466340505E+01
          0                 2           2             4    7     1      -0.9538994731E-03       4    7    1        -0.5129932730E-01      0.1465858055E+00
          0                 3           1             4    7     1       0.6490802818E-04       4    7    1         0.3588233581E-02      0.1025684081E-01

    ------------------------------------------------
       NWT REQUIRED            3 OUTER ITERATIONS 
       AND A TOTAL OF          5 INNER ITERATIONS.
    ------------------------------------------------

 NO OUTPUT CONTROL FOR STRESS PERIOD   28   TIME STEP   19
 
 SOLVING FOR HEAD 
                                                   Max.-Head-Change                         Max.-Flux-Residual
  Residual-Control   Outer-Iter.   Inner-Iter.     Column Row Layer    Maximum-Head-Change  Column Row Layer    Maximum-Flux-Residual          L2-NORM 
          0                 1           2             4    7     1       0.9745664097E-02       4    7    1         0.5098033420E+00      0.1458520658E+01
          0                 2           2             4    7     1      -0.9474745295E-03       4    7    1        -0.5095264870E-01      0.1458041560E+00
          0                 3           1             4    7     1       0.6447084307E-04       4    7    1         0.3563984410E-02      0.1020213970E-01

    ------------------------------------------------
       NWT REQUIRED            3 OUTER ITERATIONS 
       AND A TOTAL OF          5 INNER ITERATIONS.
    ------------------------------------------------

 NO OUTPUT CONTROL FOR STRESS PERIOD   28   TIME STEP   20
 
 SOLVING FOR HEAD 
                                                   Max.-Head-Change                         Max.-Flux-Residual
  Residual-Control   Outer-Iter.   Inner-Iter.     Column Row Layer    Maximum-Head-Change  Column Row Layer    Maximum-Flux-Residual          L2-NORM 
          0                 1           2             4    7     1       0.9680242449E-02       4    7    1         0.5063695017E+00      0.1450789613E+01
          0                 2           2             4    7     1      -0.9411142095E-03       4    7    1        -0.5060944959E-01      0.1450314412E+00
          0                 3           1             4    7     1       0.6403805475E-04       4    7    1         0.3539978607E-02      0.1014808683E-01

    ------------------------------------------------
       NWT REQUIRED            3 OUTER ITERATIONS 
       AND A TOTAL OF          5 INNER ITERATIONS.
    ------------------------------------------------

 NO OUTPUT CONTROL FOR STRESS PERIOD   28   TIME STEP   21
 
 SOLVING FOR HEAD 
                                                   Max.-Head-Change                         Max.-Flux-Residual
  Residual-Control   Outer-Iter.   Inner-Iter.     Column Row Layer    Maximum-Head-Change  Column Row Layer    Maximum-Flux-Residual          L2-NORM 
          0                 1           2             4    7     1       0.9615476115E-02       4    7    1         0.5029701257E+00      0.1443120299E+01
          0                 2           2             4    7     1      -0.9348175996E-03       4    7    1        -0.5026969506E-01      0.1442648646E+00
          0                 3           1             4    7     1       0.6360960217E-04       4    7    1         0.3516213754E-02      0.1009447373E-01

    ------------------------------------------------
       NWT REQUIRED            3 OUTER ITERATIONS 
       AND A TOTAL OF          5 INNER ITERATIONS.
    ------------------------------------------------

 NO OUTPUT CONTROL FOR STRESS PERIOD   28   TIME STEP   22
 
 SOLVING FOR HEAD 
                                                   Max.-Head-Change                         Max.-Flux-Residual
  Residual-Control   Outer-Iter.   Inner-Iter.     Column Row Layer    Maximum-Head-Change  Column Row Layer    Maximum-Flux-Residual          L2-NORM 
          0                 1           2             4    7     1       0.9551485854E-02       4    7    1         0.4996120743E+00      0.1435530535E+01
          0                 2           2             4    7     1      -0.9285964406E-03       4    7    1        -0.4993407081E-01      0.1435062323E+00
          0                 3           1             4    7     1       0.6318628326E-04       4    7    1         0.3492737794E-02      0.1004138770E-01

    ------------------------------------------------
       NWT REQUIRED            3 OUTER ITERATIONS 
       AND A TOTAL OF          5 INNER ITERATIONS.
    ------------------------------------------------

 NO OUTPUT CONTROL FOR STRESS PERIOD   28   TIME STEP   23
 
 SOLVING FOR HEAD 
                                                   Max.-Head-Change                         Max.-Flux-Residual
  Residual-Control   Outer-Iter.   Inner-Iter.     Column Row Layer    Maximum-Head-Change  Column Row Layer    Maximum-Flux-Residual          L2-NORM 
          0                 1           2             4    7     1       0.9487988274E-02       4    7    1         0.4962795656E+00      0.1428006032E+01
          0                 2           2             4    7     1      -0.9224231803E-03       4    7    1        -0.4960099947E-01      0.1427541568E+00
          0                 3           1             4    7     1       0.6276622383E-04       4    7    1         0.3469440426E-02      0.9988772122E-02

    ------------------------------------------------
       NWT REQUIRED            3 OUTER ITERATIONS 
       AND A TOTAL OF          5 INNER ITERATIONS.
    ------------------------------------------------

 NO OUTPUT CONTROL FOR STRESS PERIOD   28   TIME STEP   24
 
 SOLVING FOR HEAD 
                                                   Max.-Head-Change                         Max.-Flux-Residual
  Residual-Control   Outer-Iter.   Inner-Iter.     Column Row Layer    Maximum-Head-Change  Column Row Layer    Maximum-Flux-Residual          L2-NORM 
          0                 1           2             4    7     1       0.9425115678E-02       4    7    1         0.4929799492E+00      0.1420555493E+01
          0                 2           2             4    7     1      -0.9163106810E-03       4    7    1        -0.4927121559E-01      0.1420094404E+00
          0                 3           1             4    7     1       0.6235029895E-04       4    7    1         0.3446372980E-02      0.9936667909E-02

    ------------------------------------------------
       NWT REQUIRED            3 OUTER ITERATIONS 
       AND A TOTAL OF          5 INNER ITERATIONS.
    ------------------------------------------------

 NO OUTPUT CONTROL FOR STRESS PERIOD   28   TIME STEP   25
 
 SOLVING FOR HEAD 
                                                   Max.-Head-Change                         Max.-Flux-Residual
  Residual-Control   Outer-Iter.   Inner-Iter.     Column Row Layer    Maximum-Head-Change  Column Row Layer    Maximum-Flux-Residual          L2-NORM 
          0                 1           2             4    7     1       0.9362995521E-02       4    7    1         0.4897200853E+00      0.1413178347E+01
          0                 2           2             4    7     1      -0.9102713350E-03       4    7    1        -0.4894540486E-01      0.1412720904E+00
          0                 3           1             4    7     1       0.6193935155E-04       4    7    1         0.3423583453E-02      0.9885088754E-02

    ------------------------------------------------
       NWT REQUIRED            3 OUTER ITERATIONS 
       AND A TOTAL OF          5 INNER ITERATIONS.
    ------------------------------------------------

 NO OUTPUT CONTROL FOR STRESS PERIOD   28   TIME STEP   26
 
 SOLVING FOR HEAD 
                                                   Max.-Head-Change                         Max.-Flux-Residual
  Residual-Control   Outer-Iter.   Inner-Iter.     Column Row Layer    Maximum-Head-Change  Column Row Layer    Maximum-Flux-Residual          L2-NORM 
          0                 1           2             4    7     1       0.9301340292E-02       4    7    1         0.4864845379E+00      0.1405863038E+01
          0                 2           2             4    7     1      -0.9042771892E-03       4    7    1        -0.4862202446E-01      0.1405409071E+00
          0                 3           1             4    7     1       0.6153147984E-04       4    7    1         0.3400963926E-02      0.9833925071E-02

    ------------------------------------------------
       NWT REQUIRED            3 OUTER ITERATIONS 
       AND A TOTAL OF          5 INNER ITERATIONS.
    ------------------------------------------------

 NO OUTPUT CONTROL FOR STRESS PERIOD   28   TIME STEP   27
 
 SOLVING FOR HEAD 
                                                   Max.-Head-Change                         Max.-Flux-Residual
  Residual-Control   Outer-Iter.   Inner-Iter.     Column Row Layer    Maximum-Head-Change  Column Row Layer    Maximum-Flux-Residual          L2-NORM 
          0                 1           2             4    7     1       0.9240418219E-02       4    7    1         0.4832877927E+00      0.1398620153E+01
          0                 2           2             4    7     1      -0.8983543215E-03       4    7    1        -0.4830252223E-01      0.1398169616E+00
          0                 3           1             4    7     1       0.6112845816E-04       4    7    1         0.3378615653E-02      0.9783289698E-02

    ------------------------------------------------
       NWT REQUIRED            3 OUTER ITERATIONS 
       AND A TOTAL OF          5 INNER ITERATIONS.
    ------------------------------------------------

 NO OUTPUT CONTROL FOR STRESS PERIOD   28   TIME STEP   28
 
 SOLVING FOR HEAD 
                                                   Max.-Head-Change                         Max.-Flux-Residual
  Residual-Control   Outer-Iter.   Inner-Iter.     Column Row Layer    Maximum-Head-Change  Column Row Layer    Maximum-Flux-Residual          L2-NORM 
          0                 1           2             4    7     1       0.9179945844E-02       4    7    1         0.4801143636E+00      0.1391439083E+01
          0                 2           2             4    7     1      -0.8924751738E-03       4    7    1        -0.4798535037E-01      0.1390992073E+00
          0                 3           1             4    7     1       0.6072841157E-04       4    7    1         0.3356430386E-02      0.9733081100E-02

    ------------------------------------------------
       NWT REQUIRED            3 OUTER ITERATIONS 
       AND A TOTAL OF          5 INNER ITERATIONS.
    ------------------------------------------------

 NO OUTPUT CONTROL FOR STRESS PERIOD   28   TIME STEP   29
 
 SOLVING FOR HEAD 
                                                   Max.-Head-Change                         Max.-Flux-Residual
  Residual-Control   Outer-Iter.   Inner-Iter.     Column Row Layer    Maximum-Head-Change  Column Row Layer    Maximum-Flux-Residual          L2-NORM 
          0                 1           2             4    7     1       0.9120191168E-02       4    7    1         0.4769789476E+00      0.1384332880E+01
          0                 2           2             4    7     1      -0.8866658013E-03       4    7    1        -0.4767197777E-01      0.1383889705E+00
          0                 3           1             4    7     1       0.6033311301E-04       4    7    1         0.3334510891E-02      0.9683368270E-02

    ------------------------------------------------
       NWT REQUIRED            3 OUTER ITERATIONS 
       AND A TOTAL OF          5 INNER ITERATIONS.
    ------------------------------------------------

 NO OUTPUT CONTROL FOR STRESS PERIOD   28   TIME STEP   30



 STREAM LISTING     PERIOD     28   STEP       30

 LAYER ROW COL. STREAM  RCH.  FLOW INTO     FLOW TO   FLOW OUT OF   OVRLND.     DIRECT     STREAM       STREAM     STREAM     STREAM   STREAMBED  STREAMBED
                SEG.NO.  NO.  STRM. RCH.    AQUIFER    STRM. RCH.    RUNOFF     PRECIP       ET          HEAD       DEPTH      WIDTH   CONDCTNC.   GRADIENT

   1    1    1     1     1    1.9000E+01  2.1427E-01   1.8786E+01  0.000E+00  0.000E+00  0.000E+00  1.09413E+03  1.082E+00  1.166E+01  5.249E-02  1.361E+00
   1    2    2     1     2    1.8786E+01  3.3054E-01   1.8455E+01  0.000E+00  0.000E+00  0.000E+00  1.08914E+03  1.077E+00  1.158E+01  8.107E-02  1.359E+00
   1    3    3     1     3    1.8455E+01  2.8064E-01   1.8175E+01  0.000E+00  0.000E+00  0.000E+00  1.08349E+03  1.072E+00  1.149E+01  6.892E-02  1.357E+00
   1    3    4     1     4    1.8175E+01  2.5740E-01   1.7917E+01  0.000E+00  0.000E+00  0.000E+00  1.07848E+03  1.068E+00  1.140E+01  6.328E-02  1.356E+00
   1    4    5     2     1    1.5917E+01  3.0542E-01   1.5612E+01  0.000E+00  0.000E+00  0.000E+00  1.07285E+03  9.157E-01  1.200E+01  7.800E-02  1.305E+00
   1    5    6     2     2    1.5612E+01  2.3438E-01   1.5377E+01  0.000E+00  0.000E+00  0.000E+00  1.06742E+03  9.063E-01  1.200E+01  6.000E-02  1.302E+00
   1    6    6     2     3    1.5377E+01  2.3388E-01   1.5143E+01  0.000E+00  0.000E+00  0.000E+00  1.06269E+03  8.980E-01  1.200E+01  6.000E-02  1.299E+00
   1    7    6     2     4    1.5143E+01  2.3338E-01   1.4910E+01  0.000E+00  0.000E+00  0.000E+00  1.05797E+03  8.897E-01  1.200E+01  6.000E-02  1.297E+00
   1    8    6     2     5    1.4910E+01  2.3289E-01   1.4677E+01  0.000E+00  0.000E+00  0.000E+00  1.05324E+03  8.814E-01  1.200E+01  6.000E-02  1.294E+00
   1    3    5     3     1    2.0000E+00  2.8252E-01   1.7175E+00  0.000E+00  0.000E+00  0.000E+00  1.07555E+03  1.909E+00  9.636E+00  7.227E-02  1.955E+00
   1    3    6     3     2    1.7175E+00  2.4905E-01   1.4684E+00  0.000E+00  0.000E+00  0.000E+00  1.07264E+03  1.727E+00  8.909E+00  6.682E-02  1.864E+00
   1    3    7     3     3    1.4684E+00  1.9718E-01   1.2712E+00  0.000E+00  0.000E+00  0.000E+00  1.06987E+03  1.555E+00  8.218E+00  5.547E-02  1.777E+00
   1    4    8     3     4    1.2712E+00  2.2567E-01   1.0456E+00  0.000E+00  0.000E+00  0.000E+00  1.06682E+03  1.364E+00  7.455E+00  6.709E-02  1.682E+00
   1    5    8     3     5    1.0456E+00  1.5790E-01   8.8768E-01  0.000E+00  0.000E+00  0.000E+00  1.06362E+03  1.164E+00  6.655E+00  4.991E-02  1.582E+00
   1    6    8     3     6    8.8768E-01  5.5980E-02   8.3170E-01  0.000E+00  0.000E+00  0.000E+00  1.06158E+03  1.036E+00  6.145E+00  1.844E-02  1.518E+00
   1    5   10     4     1    1.0000E+01  9.0919E-02   9.9091E+00  0.000E+00  0.000E+00  0.000E+00  1.07836E+03  6.368E-01  1.000E+01  2.500E-02  1.212E+00
   1    5    9     4     2    9.9091E+00  1.8158E-01   9.7275E+00  0.000E+00  0.000E+00  0.000E+00  1.07154E+03  6.315E-01  1.000E+01  5.000E-02  1.211E+00
   1    6    8     4     3    9.7275E+00  1.2689E-01   9.6006E+00  0.000E+00  0.000E+00  0.000E+00  1.06381E+03  6.256E-01  1.000E+01  3.500E-02  1.209E+00
   1    6    8     5     1    1.0432E+01  2.2686E-01   1.0205E+01  0.000E+00  0.000E+00  0.000E+00  1.05868E+03  6.790E-01  1.542E+01  6.166E-02  1.226E+00
   1    7    7     5     2    1.0205E+01  2.7894E-01   9.9265E+00  0.000E+00  0.000E+00  0.000E+00  1.05417E+03  6.732E-01  1.519E+01  7.594E-02  1.224E+00
   1    8    7     5     3    9.9265E+00  1.9221E-01   9.7343E+00  0.000E+00  0.000E+00  0.000E+00  1.04992E+03  6.676E-01  1.497E+01  5.241E-02  1.223E+00
   1    8    6     5     4    9.7343E+00  1.3577E-01   9.5985E+00  0.000E+00  0.000E+00  0.000E+00  1.04691E+03  6.637E-01  1.482E+01  3.706E-02  1.221E+00
   1    9    6     6     1    2.4276E+01  2.5176E-01   2.4024E+01  0.000E+00  0.000E+00  0.000E+00  1.04392E+03  1.196E+00  1.200E+01  6.000E-02  1.399E+00
   1   10    7     6     2    2.4024E+01  2.5131E-01   2.3773E+01  0.000E+00  0.000E+00  0.000E+00  1.03937E+03  1.188E+00  1.200E+01  6.000E-02  1.396E+00
   1   11    7     6     3    2.3773E+01  2.5086E-01   2.3522E+01  0.000E+00  0.000E+00  0.000E+00  1.03482E+03  1.181E+00  1.200E+01  6.000E-02  1.394E+00
   1   12    7     6     4    2.3522E+01  2.5041E-01   2.3271E+01  0.000E+00  0.000E+00  0.000E+00  1.03026E+03  1.173E+00  1.200E+01  6.000E-02  1.391E+00
   1   13    7     6     5    2.3271E+01  4.9400E-03   2.3266E+01  0.000E+00  0.000E+00  0.000E+00  1.02708E+03  1.170E+00  1.200E+01  2.400E-02  6.861E-02
   1   14    9     7     1    1.5000E+02  1.3422E+00   1.4866E+02  0.000E+00  0.000E+00  0.000E+00  1.03987E+03  2.288E+00  5.529E+01  5.593E-01  7.999E-01
   1   13    8     7     2    1.4866E+02  1.8819E+00   1.4678E+02  0.000E+00  0.000E+00  0.000E+00  1.03478E+03  2.279E+00  5.526E+01  6.148E-01  1.020E+00
   1   13    7     7     3    1.4678E+02  1.5727E+00   1.4520E+02  0.000E+00  0.000E+00  0.000E+00  1.02969E+03  2.270E+00  5.521E+01  5.584E-01  9.388E-01
   1   13    6     8     1    1.6847E+02  1.0211E+00   1.6745E+02  0.000E+00  0.000E+00  0.000E+00  1.02481E+03  2.939E+00  4.261E+01  4.342E-01  7.838E-01
   1   13    5     8     2    1.6745E+02  2.7391E-01   1.6717E+02  0.000E+00  0.000E+00  0.000E+00  1.01856E+03  2.935E+00  4.255E+01  4.336E-01  2.106E-01
   1   13    4     8     3    1.6717E+02 -2.1237E+00   1.6930E+02  0.000E+00  0.000E+00  0.000E+00  1.01232E+03  2.941E+00  4.264E+01  4.345E+00 -1.629E-01
   1   13    3     8     4    1.6930E+02 -3.5216E+00   1.7282E+02  0.000E+00  0.000E+00  0.000E+00  1.00608E+03  2.959E+00  4.291E+01  4.372E+00 -2.685E-01
   1   13    2     8     5    1.7282E+02 -2.5469E+00   1.7537E+02  0.000E+00  0.000E+00  0.000E+00  9.99854E+02  2.979E+00  4.319E+01  4.401E+00 -1.929E-01
   1   13    1     8     6    1.7537E+02 -1.9762E+00   1.7734E+02  0.000E+00  0.000E+00  0.000E+00  9.94868E+02  2.993E+00  4.340E+01  2.654E+00 -2.482E-01





UNSATURATED ZONE PACKAGE VOLUMETRIC BUDGET FOR  TIME STEP    30 STRESS PERIOD   28
  ------------------------------------------------------------------------------



     CUMULATIVE VOLUMES      L**3       RATES FOR THIS TIME STEP      L**3/T
     ------------------                 ------------------------

           IN:                                      IN:
           ---                                      ---
        INFILTRATION =  1253783818.0916          INFILTRATION =           4.4075

          OUT:                                     OUT:
          ----                                     ----
              UZF ET =  1005627349.7150                UZF ET =           0.7253
        UZF RECHARGE =   147901079.1039          UZF RECHARGE =           0.0810

            IN - OUT =   100255389.2727              IN - OUT =           3.6012

          STORAGE:                                 STORAGE:
          --------                                 --------
      STORAGE CHANGE =   100256893.2759        STORAGE CHANGE =           3.6012

 PERCENT DISCREPANCY IS DIFFERENCE BETWEEN IN-OUT MINUS CHANGE IN STORAGE
 DIVIDED BY THE AVERAGE OF IN AND OUT TIMES 100

 PERCENT DISCREPANCY =          -0.00     PERCENT DISCREPANCY =           0.00






1
  VOLUMETRIC BUDGET FOR AGRICULTURAL FIELDS AT TIME STEP   30, STRESS PERIOD  28
  ------------------------------------------------------------------------------

     CUMULATIVE VOLUMES      L**3       RATES FOR THIS TIME STEP      L**3/T
     ------------------                 ------------------------

           IN:                                      IN:
           ---                                      ---
               AG WELLS  =   940732288.0000                 AG WELLS  =           0.0000
      DIVERSION SEGMENTS =           0.0000        DIVERSION SEGMENTS =           0.0000
           GW IRRIGATION =           0.0000             GW IRRIGATION =           0.0000
           SW IRRIGATION =           0.0000             SW IRRIGATION =           0.0000
        SYSTEM LOSSES GW =           0.0000          SYSTEM LOSSES GW =           0.0000
        SYSTEM LOSSES SW =           0.0000          SYSTEM LOSSES SW =           0.0000

                TOTAL IN =   940732288.0000                  TOTAL IN =           0.0000

          OUT:                                     OUT:
          ----                                     ----
               AG WELLS  =           0.0000                 AG WELLS  =           0.0000
      DIVERSION SEGMENTS =           0.0000        DIVERSION SEGMENTS =           0.0000
           GW IRRIGATION =   940732288.0000             GW IRRIGATION =           0.0000
           SW IRRIGATION =           0.0000             SW IRRIGATION =           0.0000
        SYSTEM LOSSES GW =           0.0000          SYSTEM LOSSES GW =           0.0000
        SYSTEM LOSSES SW =           0.0000          SYSTEM LOSSES SW =           0.0000

               TOTAL OUT =   940732288.0000                 TOTAL OUT =           0.0000

                IN - OUT =           0.0000                  IN - OUT =           0.0000

     PERCENT DISCREPANCY =           0.00         PERCENT DISCREPANCY =           0.00



1
  VOLUMETRIC BUDGET FOR ENTIRE MODEL AT END OF TIME STEP   30, STRESS PERIOD  28
  ------------------------------------------------------------------------------

     CUMULATIVE VOLUMES      L**3       RATES FOR THIS TIME STEP      L**3/T
     ------------------                 ------------------------

           IN:                                      IN:
           ---                                      ---
             STORAGE     =  1247590912.0000               STORAGE     =           4.0745
       CONSTANT HEAD     =           0.0000         CONSTANT HEAD     =           0.0000
     HEAD DEP BOUNDS     =    20301070.0000       HEAD DEP BOUNDS     =           0.2862
      STREAM LEAKAGE     =   877752192.0000        STREAM LEAKAGE     =          11.8253
        UZF RECHARGE     =   147900960.0000          UZF RECHARGE     =       8.0977E-02
               GW ET     =           0.0000                 GW ET     =           0.0000
     SURFACE LEAKAGE     =           0.0000       SURFACE LEAKAGE     =           0.0000
           AG WELLS      =           0.0000             AG WELLS      =           0.0000

                TOTAL IN =  2293545216.0000                  TOTAL IN =          16.2670

          OUT:                                     OUT:
          ----                                     ----
             STORAGE     =   577524032.0000               STORAGE     =           5.8097
       CONSTANT HEAD     =           0.0000         CONSTANT HEAD     =           0.0000
     HEAD DEP BOUNDS     =    20869316.0000       HEAD DEP BOUNDS     =           0.2893
      STREAM LEAKAGE     =   737123840.0000        STREAM LEAKAGE     =          10.1685
        UZF RECHARGE     =           0.0000          UZF RECHARGE     =           0.0000
               GW ET     =    17288296.0000                 GW ET     =           0.0000
     SURFACE LEAKAGE     =           0.0000       SURFACE LEAKAGE     =           0.0000
           AG WELLS      =   940732288.0000             AG WELLS      =           0.0000

               TOTAL OUT =  2293537792.0000                 TOTAL OUT =          16.2675

                IN - OUT =        7424.0000                  IN - OUT =      -4.9591E-04

     PERCENT DISCREPANCY =           0.00         PERCENT DISCREPANCY =          -0.00






         TIME SUMMARY AT END OF TIME STEP   30 IN STRESS PERIOD   28
                    SECONDS     MINUTES      HOURS       DAYS        YEARS
                    -----------------------------------------------------------
   TIME STEP LENGTH  87667.      1461.1      24.352      1.0147     2.77799E-03
 STRESS PERIOD TIME 2.63000E+06  43833.      730.56      30.440     8.33397E-02
         TOTAL TIME 7.10967E+07 1.18494E+06  19749.      822.88      2.2529    
1
1
                            STRESS PERIOD NO.   29, LENGTH =   2630000.    
                            -----------------------------------------------

                              NUMBER OF TIME STEPS =    30

                               MULTIPLIER FOR DELT =     1.000

                            INITIAL TIME STEP SIZE =   87666.66    

 REUSING NON-PARAMETER GHB CELLS FROM LAST STRESS PERIOD

      2 GHB CELLS

 REUSING STREAM SEGMENT DATA FROM LAST STRESS PERIOD



            AREAL INFILTRATION RATE
 READING ON UNIT   19 WITH FORMAT: (10F4.0)            

            1           2           3           4           5           6           7           8           9          10
 ........................................................................................................................
   1   1.2000E-09   0.000       0.000       0.000       0.000       0.000       0.000       0.000       0.000       0.000    
   2   2.1000E-09  2.0000E-09  8.0000E-10  8.5000E-09   0.000       0.000       0.000       0.000       0.000       0.000    
   3   5.0000E-10  1.1000E-09  8.8000E-09  5.5000E-09   0.000       0.000       0.000       0.000       0.000       0.000    
   4   8.5000E-09  1.1000E-09  1.1000E-09  1.1000E-09  2.0000E-09   0.000       0.000       0.000       0.000       0.000    
   5   8.5000E-09  1.1000E-09  1.1000E-09  1.1000E-09  1.1000E-09   0.000       0.000       0.000       0.000       0.000    
   6   8.5000E-09  5.2000E-09  2.1000E-09  1.1000E-09  1.5000E-09   0.000       0.000       0.000       0.000       0.000    
   7   8.5000E-09  5.2000E-09  2.1000E-09  1.2000E-09  2.0000E-09   0.000       0.000       0.000       0.000       0.000    
   8   5.0000E-10  5.2000E-09  2.1000E-09  1.2000E-09  5.0000E-09   0.000       0.000       0.000       0.000       0.000    
   9   5.0000E-10  5.2000E-09  2.1000E-09  1.2000E-09  5.0000E-09   0.000       0.000       0.000       0.000       0.000    
  10   5.0000E-10  5.2000E-09  2.1000E-09  1.2000E-09  5.8000E-09   0.000       0.000       0.000       0.000       0.000    
  11   1.0000E-10  1.1000E-09  1.1000E-09  1.2000E-09  5.0000E-09   0.000       0.000       0.000       0.000       0.000    
  12   1.1000E-09  1.1000E-09  1.1000E-09  1.1000E-09  2.0000E-09   0.000       0.000       0.000       0.000       0.000    
  13   1.1000E-09  2.2000E-09  2.2000E-09  2.1000E-09  1.0000E-09   0.000       0.000       0.000       0.000       0.000    
  14   2.0000E-10  5.5000E-09  5.5000E-09  5.2000E-09  1.0000E-09   0.000       0.000       0.000       0.000       0.000    
  15    0.000      8.8000E-09  8.8000E-09   0.000       0.000       0.000       0.000       0.000       0.000       0.000    

                  ET RATE =  2.500000E-08

 USING ET EXTINCTION DEPTH FROM PREVIOUS STRESS PERIOD. CURRENT PERIOD IS:      29

 USING EXTINCTION WATER CONTENT FROM PREVIOUS STRESS PERIOD. CURRENT PERIOD IS:      29

 USING AIR ENTRY PRESSURE FROM PREVIOUS STRESS PERIOD. CURRENT PERIOD IS:      29

 USING ROOT PRESSURE HEAD FROM PREVIOUS STRESS PERIOD. CURRENT PERIOD IS:      29

 USING ROOT ACTIVITY FROM PREVIOUS STRESS PERIOD. CURRENT PERIOD IS:      29

 PROCESSING AG STRESS PERIOD DATA

 READING AG STRESS PERIOD DATA

 READING IRRIGATION WELL

 END PROCESSING AG STRESS PERIOD DATA OPTIONS
 
 SOLVING FOR HEAD 
                                                   Max.-Head-Change                         Max.-Flux-Residual
  Residual-Control   Outer-Iter.   Inner-Iter.     Column Row Layer    Maximum-Head-Change  Column Row Layer    Maximum-Flux-Residual          L2-NORM 
          0                 1           2             4    7     1       0.9060982852E-02       4    7    1         0.4738721952E+00      0.1377287418E+01
          0                 2           2             4    7     1      -0.8809312249E-03       4    7    1        -0.4736266941E-01      0.1376855134E+00
          0                 3           1             4    7     1       0.5992181356E-04       4    7    1         0.3311676223E-02      0.9633379552E-02

    ------------------------------------------------
       NWT REQUIRED            3 OUTER ITERATIONS 
       AND A TOTAL OF          5 INNER ITERATIONS.
    ------------------------------------------------

 NO OUTPUT CONTROL FOR STRESS PERIOD   29   TIME STEP    1
 
 SOLVING FOR HEAD 
                                                   Max.-Head-Change                         Max.-Flux-Residual
  Residual-Control   Outer-Iter.   Inner-Iter.     Column Row Layer    Maximum-Head-Change  Column Row Layer    Maximum-Flux-Residual          L2-NORM 
          0                 1           2             4    7     1       0.8980384696E-02       4    7    1         0.4696470216E+00      0.1368853969E+01
          0                 2           2             4    7     1      -0.9005931757E-03       4    7    1        -0.4841619116E-01      0.1387995395E+00
          0                 3           1             3    7     1       0.5463240013E-04       5    7    1         0.2772934877E-02      0.8374552109E-02

    ------------------------------------------------
       NWT REQUIRED            3 OUTER ITERATIONS 
       AND A TOTAL OF          5 INNER ITERATIONS.
    ------------------------------------------------

 NO OUTPUT CONTROL FOR STRESS PERIOD   29   TIME STEP    2
 
 SOLVING FOR HEAD 
                                                   Max.-Head-Change                         Max.-Flux-Residual
  Residual-Control   Outer-Iter.   Inner-Iter.     Column Row Layer    Maximum-Head-Change  Column Row Layer    Maximum-Flux-Residual          L2-NORM 
          0                 1           2             4    7     1       0.8938008025E-02       4    7    1         0.4674260953E+00      0.1361464863E+01
          0                 2           2             4    7     1      -0.8758410217E-03       4    7    1        -0.4707812142E-01      0.1369141133E+00
          0                 3           1             3    7     1       0.5463934767E-04       4    7    1         0.2914534639E-02      0.8781660399E-02

    ------------------------------------------------
       NWT REQUIRED            3 OUTER ITERATIONS 
       AND A TOTAL OF          5 INNER ITERATIONS.
    ------------------------------------------------

 NO OUTPUT CONTROL FOR STRESS PERIOD   29   TIME STEP    3
 
 SOLVING FOR HEAD 
                                                   Max.-Head-Change                         Max.-Flux-Residual
  Residual-Control   Outer-Iter.   Inner-Iter.     Column Row Layer    Maximum-Head-Change  Column Row Layer    Maximum-Flux-Residual          L2-NORM 
          0                 1           2             4    7     1       0.8446360581E-02       4    7    1         0.4428039592E+00      0.1310207240E+01
          0                 2           2             4    7     1      -0.9165976897E-03       4    7    1        -0.4944093451E-01      0.1366033565E+00
          0                 3           1             3    7     1       0.5360986959E-04       4    6    1        -0.3030046433E-02      0.8234572142E-02

    ------------------------------------------------
       NWT REQUIRED            3 OUTER ITERATIONS 
       AND A TOTAL OF          5 INNER ITERATIONS.
    ------------------------------------------------

 NO OUTPUT CONTROL FOR STRESS PERIOD   29   TIME STEP    4
 
 SOLVING FOR HEAD 
                                                   Max.-Head-Change                         Max.-Flux-Residual
  Residual-Control   Outer-Iter.   Inner-Iter.     Column Row Layer    Maximum-Head-Change  Column Row Layer    Maximum-Flux-Residual          L2-NORM 
          0                 1           2             3    7     1       0.8070124770E-02       5    8    1         0.3479486546E+00      0.1063358164E+01
          0                 2           2             5    6     1      -0.2366248991E-02       5    6    1        -0.1297447071E+00      0.1664782822E+00
          0                 3           2             5    6     1       0.2290909972E-03       5    6    1         0.1300340372E-01      0.1481287928E-01
          0                 4           1             5    7     1      -0.8377499343E-04       5    7    1        -0.4717693986E-02      0.5121471381E-02

    ------------------------------------------------
       NWT REQUIRED            4 OUTER ITERATIONS 
       AND A TOTAL OF          7 INNER ITERATIONS.
    ------------------------------------------------

 NO OUTPUT CONTROL FOR STRESS PERIOD   29   TIME STEP    5
 
 SOLVING FOR HEAD 
                                                   Max.-Head-Change                         Max.-Flux-Residual
  Residual-Control   Outer-Iter.   Inner-Iter.     Column Row Layer    Maximum-Head-Change  Column Row Layer    Maximum-Flux-Residual          L2-NORM 
          0                 1           2             3    7     1       0.7925537917E-02       5    8    1         0.3367827240E+00      0.1043658110E+01
          0                 2           2             5    6     1      -0.2302095356E-02       5    6    1        -0.1268890882E+00      0.1632637012E+00
          0                 3           2             5    6     1       0.2239082940E-03       5    6    1         0.1269719403E-01      0.1457780466E-01
          0                 4           1             5    8     1      -0.2304664022E-04       5    8    1        -0.1306623818E-02      0.1604006915E-02

    ------------------------------------------------
       NWT REQUIRED            4 OUTER ITERATIONS 
       AND A TOTAL OF          7 INNER ITERATIONS.
    ------------------------------------------------

 NO OUTPUT CONTROL FOR STRESS PERIOD   29   TIME STEP    6
 
 SOLVING FOR HEAD 
                                                   Max.-Head-Change                         Max.-Flux-Residual
  Residual-Control   Outer-Iter.   Inner-Iter.     Column Row Layer    Maximum-Head-Change  Column Row Layer    Maximum-Flux-Residual          L2-NORM 
          0                 1           2             3    7     1       0.7783461640E-02       4    9    1         0.2485201762E+00      0.9716070906E+00
          0                 2           2             5    8     1      -0.4664892110E-02       5    8    1        -0.2643199635E+00      0.3076753252E+00
          0                 3           2             5    8     1       0.3175739344E-03       5    8    1         0.1849726501E-01      0.2336003336E-01
          0                 4           1             5    6     1      -0.1523054299E-04       5    6    1        -0.8881043427E-03      0.1196937913E-02

    ------------------------------------------------
       NWT REQUIRED            4 OUTER ITERATIONS 
       AND A TOTAL OF          7 INNER ITERATIONS.
    ------------------------------------------------

 NO OUTPUT CONTROL FOR STRESS PERIOD   29   TIME STEP    7
 
 SOLVING FOR HEAD 
                                                   Max.-Head-Change                         Max.-Flux-Residual
  Residual-Control   Outer-Iter.   Inner-Iter.     Column Row Layer    Maximum-Head-Change  Column Row Layer    Maximum-Flux-Residual          L2-NORM 
          0                 1           2             3    7     1       0.7643793334E-02       4    9    1         0.2409914200E+00      0.9497591262E+00
          0                 2           2             5    8     1      -0.4489134692E-02       5    8    1        -0.2543513585E+00      0.2992661127E+00
          0                 3           2             5    8     1       0.3056921749E-03       5    8    1         0.1780451824E-01      0.2286997626E-01
          0                 4           1             5    6     1      -0.1542999726E-04       5    6    1        -0.8997503087E-03      0.1186793126E-02

    ------------------------------------------------
       NWT REQUIRED            4 OUTER ITERATIONS 
       AND A TOTAL OF          7 INNER ITERATIONS.
    ------------------------------------------------

 NO OUTPUT CONTROL FOR STRESS PERIOD   29   TIME STEP    8
 
 SOLVING FOR HEAD 
                                                   Max.-Head-Change                         Max.-Flux-Residual
  Residual-Control   Outer-Iter.   Inner-Iter.     Column Row Layer    Maximum-Head-Change  Column Row Layer    Maximum-Flux-Residual          L2-NORM 
          0                 1           2             3    7     1       0.7506564272E-02       4    9    1         0.2337570034E+00      0.9298891881E+00
          0                 2           2             5    8     1      -0.4438794575E-02       5    8    1        -0.2514987046E+00      0.2968368263E+00
          0                 3           2             5    8     1       0.3022641586E-03       5    8    1         0.1760483426E-01      0.2274175401E-01
          0                 4           1             5    6     1      -0.1556376109E-04       5    6    1        -0.9075569847E-03      0.1186602460E-02

    ------------------------------------------------
       NWT REQUIRED            4 OUTER ITERATIONS 
       AND A TOTAL OF          7 INNER ITERATIONS.
    ------------------------------------------------

 NO OUTPUT CONTROL FOR STRESS PERIOD   29   TIME STEP    9
 
 SOLVING FOR HEAD 
                                                   Max.-Head-Change                         Max.-Flux-Residual
  Residual-Control   Outer-Iter.   Inner-Iter.     Column Row Layer    Maximum-Head-Change  Column Row Layer    Maximum-Flux-Residual          L2-NORM 
          0                 1           2             3    7     1       0.7371767454E-02       4    9    1         0.2267919133E+00      0.9119119385E+00
          0                 2           2             5    8     1      -0.4415042051E-02       5    8    1        -0.2501543067E+00      0.2956738453E+00
          0                 3           2             5    8     1       0.3006467124E-03       5    8    1         0.1751069986E-01      0.2270050981E-01
          0                 4           1             5    6     1      -0.1569998679E-04       5    6    1        -0.9155049520E-03      0.1189298843E-02

    ------------------------------------------------
       NWT REQUIRED            4 OUTER ITERATIONS 
       AND A TOTAL OF          7 INNER ITERATIONS.
    ------------------------------------------------

 NO OUTPUT CONTROL FOR STRESS PERIOD   29   TIME STEP   10
 
 SOLVING FOR HEAD 
                                                   Max.-Head-Change                         Max.-Flux-Residual
  Residual-Control   Outer-Iter.   Inner-Iter.     Column Row Layer    Maximum-Head-Change  Column Row Layer    Maximum-Flux-Residual          L2-NORM 
          0                 1           2             3    7     1       0.7239392830E-02       4    9    1         0.2200931435E+00      0.8953201436E+00
          0                 2           2             5    8     1      -0.4438966329E-02       5    8    1        -0.2515143808E+00      0.2968124085E+00
          0                 3           2             5    8     1       0.3022758535E-03       5    8    1         0.1760562187E-01      0.2280418094E-01
          0                 4           1             5    6     1      -0.1582861043E-04       5    6    1        -0.9230060464E-03      0.1196386634E-02

    ------------------------------------------------
       NWT REQUIRED            4 OUTER ITERATIONS 
       AND A TOTAL OF          7 INNER ITERATIONS.
    ------------------------------------------------

 NO OUTPUT CONTROL FOR STRESS PERIOD   29   TIME STEP   11
 
 SOLVING FOR HEAD 
                                                   Max.-Head-Change                         Max.-Flux-Residual
  Residual-Control   Outer-Iter.   Inner-Iter.     Column Row Layer    Maximum-Head-Change  Column Row Layer    Maximum-Flux-Residual          L2-NORM 
          0                 1           2             3    7     1       0.7109426895E-02       4    9    1         0.2136517778E+00      0.8794494981E+00
          0                 2           2             5    8     1      -0.4457594295E-02       5    8    1        -0.2525733065E+00      0.2977059535E+00
          0                 3           2             5    8     1       0.3035443384E-03       5    8    1         0.1767947578E-01      0.2289059800E-01
          0                 4           1             5    6     1      -0.1594986347E-04       5    6    1        -0.9300760482E-03      0.1202719619E-02

    ------------------------------------------------
       NWT REQUIRED            4 OUTER ITERATIONS 
       AND A TOTAL OF          7 INNER ITERATIONS.
    ------------------------------------------------

 NO OUTPUT CONTROL FOR STRESS PERIOD   29   TIME STEP   12
 
 SOLVING FOR HEAD 
                                                   Max.-Head-Change                         Max.-Flux-Residual
  Residual-Control   Outer-Iter.   Inner-Iter.     Column Row Layer    Maximum-Head-Change  Column Row Layer    Maximum-Flux-Residual          L2-NORM 
          0                 1           2             3    7     1       0.6981609765E-02       4    9    1         0.2074589901E+00      0.8645474689E+00
          0                 2           2             5    8     1      -0.4473898279E-02       5    8    1        -0.2534997574E+00      0.2984964278E+00
          0                 3           2             5    8     1       0.3046545697E-03       5    8    1         0.1774406651E-01      0.2296887541E-01
          0                 4           1             5    6     1      -0.1606434352E-04       5    6    1        -0.9367497748E-03      0.1208603210E-02

    ------------------------------------------------
       NWT REQUIRED            4 OUTER ITERATIONS 
       AND A TOTAL OF          7 INNER ITERATIONS.
    ------------------------------------------------

 NO OUTPUT CONTROL FOR STRESS PERIOD   29   TIME STEP   13
 
 SOLVING FOR HEAD 
                                                   Max.-Head-Change                         Max.-Flux-Residual
  Residual-Control   Outer-Iter.   Inner-Iter.     Column Row Layer    Maximum-Head-Change  Column Row Layer    Maximum-Flux-Residual          L2-NORM 
          0                 1           2             3    7     1       0.6856414807E-02       4    9    1         0.2015124200E+00      0.8508081793E+00
          0                 2           2             5    8     1      -0.4488915981E-02       5    8    1        -0.2543526857E+00      0.2992324438E+00
          0                 3           2             5    8     1       0.3056485962E-03       5    8    1         0.1780185100E-01      0.2304093504E-01
          0                 4           1             5    6     1      -0.1617250048E-04       5    6    1        -0.9430536420E-03      0.1214119265E-02

    ------------------------------------------------
       NWT REQUIRED            4 OUTER ITERATIONS 
       AND A TOTAL OF          7 INNER ITERATIONS.
    ------------------------------------------------

 NO OUTPUT CONTROL FOR STRESS PERIOD   29   TIME STEP   14
 
 SOLVING FOR HEAD 
                                                   Max.-Head-Change                         Max.-Flux-Residual
  Residual-Control   Outer-Iter.   Inner-Iter.     Column Row Layer    Maximum-Head-Change  Column Row Layer    Maximum-Flux-Residual          L2-NORM 
          0                 1           2             3    7     1       0.6733812135E-02       4    9    1         0.1957968069E+00      0.8375421839E+00
          0                 2           2             5    8     1      -0.4502805859E-02       5    8    1        -0.2551411332E+00      0.2999178371E+00
          0                 3           2             5    8     1       0.3065944371E-03       5    8    1         0.1785679986E-01      0.2098373797E-01
          0                 4           1             5    8     1      -0.1219968510E-04       5    8    1        -0.7302152455E-03      0.8582008726E-03

    ------------------------------------------------
       NWT REQUIRED            4 OUTER ITERATIONS 
       AND A TOTAL OF          7 INNER ITERATIONS.
    ------------------------------------------------

 NO OUTPUT CONTROL FOR STRESS PERIOD   29   TIME STEP   15
 
 SOLVING FOR HEAD 
                                                   Max.-Head-Change                         Max.-Flux-Residual
  Residual-Control   Outer-Iter.   Inner-Iter.     Column Row Layer    Maximum-Head-Change  Column Row Layer    Maximum-Flux-Residual          L2-NORM 
          0                 1           2             3    7     1       0.6613282919E-02       4    9    1         0.1903101035E+00      0.8250288626E+00
          0                 2           2             5    8     1      -0.4515866679E-02       5    8    1        -0.2558821013E+00      0.3005677269E+00
          0                 3           2             5    8     1       0.3074848451E-03       5    8    1         0.1790849321E-01      0.2102902094E-01
          0                 4           1             5    8     1      -0.1223511550E-04       5    8    1        -0.7323068628E-03      0.8600387204E-03

    ------------------------------------------------
       NWT REQUIRED            4 OUTER ITERATIONS 
       AND A TOTAL OF          7 INNER ITERATIONS.
    ------------------------------------------------

 NO OUTPUT CONTROL FOR STRESS PERIOD   29   TIME STEP   16
 
 SOLVING FOR HEAD 
                                                   Max.-Head-Change                         Max.-Flux-Residual
  Residual-Control   Outer-Iter.   Inner-Iter.     Column Row Layer    Maximum-Head-Change  Column Row Layer    Maximum-Flux-Residual          L2-NORM 
          0                 1           2             3    7     1       0.6495051062E-02       4    9    1         0.1850372174E+00      0.8132204195E+00
          0                 2           2             5    8     1      -0.4528182670E-02       5    8    1        -0.2565804606E+00      0.3011848274E+00
          0                 3           2             5    8     1       0.3083235114E-03       5    8    1         0.1795715272E-01      0.2107210298E-01
          0                 4           1             5    8     1      -0.1226848650E-04       5    8    1        -0.7342751949E-03      0.8618196116E-03

    ------------------------------------------------
       NWT REQUIRED            4 OUTER ITERATIONS 
       AND A TOTAL OF          7 INNER ITERATIONS.
    ------------------------------------------------

 NO OUTPUT CONTROL FOR STRESS PERIOD   29   TIME STEP   17
 
 SOLVING FOR HEAD 
                                                   Max.-Head-Change                         Max.-Flux-Residual
  Residual-Control   Outer-Iter.   Inner-Iter.     Column Row Layer    Maximum-Head-Change  Column Row Layer    Maximum-Flux-Residual          L2-NORM 
          0                 1           2             3    7     1       0.6379331974E-02       4    9    1         0.1799764813E+00      0.8020690820E+00
          0                 2           2             5    8     1      -0.4539778106E-02       5    8    1        -0.2572375762E+00      0.3017704467E+00
          0                 3           2             5    8     1       0.3091141324E-03       5    8    1         0.1800299284E-01      0.2111315574E-01
          0                 4           1             5    8     1      -0.1229994616E-04       5    8    1        -0.7361289852E-03      0.8635449350E-03

    ------------------------------------------------
       NWT REQUIRED            4 OUTER ITERATIONS 
       AND A TOTAL OF          7 INNER ITERATIONS.
    ------------------------------------------------

 NO OUTPUT CONTROL FOR STRESS PERIOD   29   TIME STEP   18
 
 SOLVING FOR HEAD 
                                                   Max.-Head-Change                         Max.-Flux-Residual
  Residual-Control   Outer-Iter.   Inner-Iter.     Column Row Layer    Maximum-Head-Change  Column Row Layer    Maximum-Flux-Residual          L2-NORM 
          0                 1           2             3    7     1       0.6265843021E-02       4    9    1         0.1751130647E+00      0.7915091123E+00
          0                 2           2             5    8     1      -0.4550717032E-02       5    8    1        -0.2578569535E+00      0.3023253668E+00
          0                 3           2             5    8     1       0.3098580046E-03       5    8    1         0.1804607984E-01      0.2115207820E-01
          0                 4           1             5    8     1      -0.1232954581E-04       5    8    1        -0.7378709531E-03      0.8658636748E-03

    ------------------------------------------------
       NWT REQUIRED            4 OUTER ITERATIONS 
       AND A TOTAL OF          7 INNER ITERATIONS.
    ------------------------------------------------

 NO OUTPUT CONTROL FOR STRESS PERIOD   29   TIME STEP   19
 
 SOLVING FOR HEAD 
                                                   Max.-Head-Change                         Max.-Flux-Residual
  Residual-Control   Outer-Iter.   Inner-Iter.     Column Row Layer    Maximum-Head-Change  Column Row Layer    Maximum-Flux-Residual          L2-NORM 
          0                 1           2             3    7     1       0.6154553047E-02       5    8    1         0.1742293826E+00      0.7815232892E+00
          0                 2           2             5    8     1      -0.4561036443E-02       5    8    1        -0.2584411607E+00      0.3028527741E+00
          0                 3           2             5    8     1       0.3105596902E-03       5    8    1         0.1808671213E-01      0.2118917429E-01
          0                 4           1             5    8     1      -0.1235746644E-04       5    8    1        -0.7395132009E-03      0.8667855446E-03

    ------------------------------------------------
       NWT REQUIRED            4 OUTER ITERATIONS 
       AND A TOTAL OF          7 INNER ITERATIONS.
    ------------------------------------------------

 NO OUTPUT CONTROL FOR STRESS PERIOD   29   TIME STEP   20
 
 SOLVING FOR HEAD 
                                                   Max.-Head-Change                         Max.-Flux-Residual
  Residual-Control   Outer-Iter.   Inner-Iter.     Column Row Layer    Maximum-Head-Change  Column Row Layer    Maximum-Flux-Residual          L2-NORM 
          0                 1           2             3    7     1       0.6045672965E-02       5    8    1         0.1797644830E+00      0.7720529640E+00
          0                 2           2             5    8     1      -0.4570783096E-02       5    8    1        -0.2589926782E+00      0.3033535832E+00
          0                 3           2             5    8     1       0.3112233953E-03       5    8    1         0.1812512293E-01      0.2122455538E-01
          0                 4           1             5    8     1      -0.1238387602E-04       5    8    1        -0.7410652877E-03      0.8683147818E-03

    ------------------------------------------------
       NWT REQUIRED            4 OUTER ITERATIONS 
       AND A TOTAL OF          7 INNER ITERATIONS.
    ------------------------------------------------

 NO OUTPUT CONTROL FOR STRESS PERIOD   29   TIME STEP   21
 
 SOLVING FOR HEAD 
                                                   Max.-Head-Change                         Max.-Flux-Residual
  Residual-Control   Outer-Iter.   Inner-Iter.     Column Row Layer    Maximum-Head-Change  Column Row Layer    Maximum-Flux-Residual          L2-NORM 
          0                 1           2             3    7     1       0.5938918101E-02       5    8    1         0.1849779988E+00      0.7630724715E+00
          0                 2           2             5    8     1      -0.4579966388E-02       5    8    1        -0.2595120370E+00      0.3038282075E+00
          0                 3           2             5    8     1       0.3118487382E-03       5    8    1         0.1816128930E-01      0.2125818164E-01
          0                 4           1             5    8     1      -0.1240875889E-04       5    8    1        -0.7425262156E-03      0.8697901369E-03

    ------------------------------------------------
       NWT REQUIRED            4 OUTER ITERATIONS 
       AND A TOTAL OF          7 INNER ITERATIONS.
    ------------------------------------------------

 NO OUTPUT CONTROL FOR STRESS PERIOD   29   TIME STEP   22
 
 SOLVING FOR HEAD 
                                                   Max.-Head-Change                         Max.-Flux-Residual
  Residual-Control   Outer-Iter.   Inner-Iter.     Column Row Layer    Maximum-Head-Change  Column Row Layer    Maximum-Flux-Residual          L2-NORM 
          0                 1           2             3    7     1       0.5834252784E-02       5    8    1         0.1899148205E+00      0.7546482487E+00
          0                 2           2             5    8     1      -0.4588663382E-02       5    8    1        -0.2600036965E+00      0.3042808395E+00
          0                 3           2             5    8     1       0.3124409661E-03       5    8    1         0.1819552366E-01      0.2129027905E-01
          0                 4           1             5    8     1      -0.1243232436E-04       5    8    1        -0.7439087997E-03      0.8712104383E-03

    ------------------------------------------------
       NWT REQUIRED            4 OUTER ITERATIONS 
       AND A TOTAL OF          7 INNER ITERATIONS.
    ------------------------------------------------

 NO OUTPUT CONTROL FOR STRESS PERIOD   29   TIME STEP   23
 
 SOLVING FOR HEAD 
                                                   Max.-Head-Change                         Max.-Flux-Residual
  Residual-Control   Outer-Iter.   Inner-Iter.     Column Row Layer    Maximum-Head-Change  Column Row Layer    Maximum-Flux-Residual          L2-NORM 
          0                 1           2             3    7     1       0.5731886386E-02       5    8    1         0.1945770365E+00      0.7467271554E+00
          0                 2           2             5    8     1      -0.4596879119E-02       5    8    1        -0.2604678952E+00      0.3047099901E+00
          0                 3           2             5    8     1       0.3130004226E-03       5    8    1         0.1822784187E-01      0.2132080639E-01
          0                 4           1             5    8     1      -0.1245458578E-04       5    8    1        -0.7452136174E-03      0.8725748521E-03

    ------------------------------------------------
       NWT REQUIRED            4 OUTER ITERATIONS 
       AND A TOTAL OF          7 INNER ITERATIONS.
    ------------------------------------------------

 NO OUTPUT CONTROL FOR STRESS PERIOD   29   TIME STEP   24
 
 SOLVING FOR HEAD 
                                                   Max.-Head-Change                         Max.-Flux-Residual
  Residual-Control   Outer-Iter.   Inner-Iter.     Column Row Layer    Maximum-Head-Change  Column Row Layer    Maximum-Flux-Residual          L2-NORM 
          0                 1           2             3    7     1       0.5631773380E-02       5    8    1         0.1989749206E+00      0.7389966318E+00
          0                 2           2             5    8     1      -0.4604631542E-02       5    8    1        -0.2609057202E+00      0.3051159953E+00
          0                 3           2             5    8     1       0.3135293511E-03       5    8    1         0.1825838001E-01      0.2134988502E-01
          0                 4           1             5    8     1      -0.1247563237E-04       5    8    1        -0.7464462394E-03      0.8738912759E-03

    ------------------------------------------------
       NWT REQUIRED            4 OUTER ITERATIONS 
       AND A TOTAL OF          7 INNER ITERATIONS.
    ------------------------------------------------

 NO OUTPUT CONTROL FOR STRESS PERIOD   29   TIME STEP   25
 
 SOLVING FOR HEAD 
                                                   Max.-Head-Change                         Max.-Flux-Residual
  Residual-Control   Outer-Iter.   Inner-Iter.     Column Row Layer    Maximum-Head-Change  Column Row Layer    Maximum-Flux-Residual          L2-NORM 
          0                 1           2             3    7     1       0.5533384690E-02       5    8    1         0.2031488740E+00      0.7316447387E+00
          0                 2           2             5    8     1      -0.4611990289E-02       5    8    1        -0.2613211221E+00      0.3055030024E+00
          0                 3           2             5    8     1       0.3140304501E-03       5    8    1         0.1828729454E-01      0.2137761587E-01
          0                 4           1             5    8     1      -0.1249557143E-04       5    8    1        -0.7476130093E-03      0.8751506320E-03

    ------------------------------------------------
       NWT REQUIRED            4 OUTER ITERATIONS 
       AND A TOTAL OF          7 INNER ITERATIONS.
    ------------------------------------------------

 NO OUTPUT CONTROL FOR STRESS PERIOD   29   TIME STEP   26
 
 SOLVING FOR HEAD 
                                                   Max.-Head-Change                         Max.-Flux-Residual
  Residual-Control   Outer-Iter.   Inner-Iter.     Column Row Layer    Maximum-Head-Change  Column Row Layer    Maximum-Flux-Residual          L2-NORM 
          0                 1           2             3    7     1       0.5437419506E-02       5    8    1         0.2070896973E+00      0.7246402243E+00
          0                 2           2             5    8     1      -0.4618938665E-02       5    8    1        -0.2617131811E+00      0.3058692944E+00
          0                 3           2             5    8     1       0.3145025825E-03       5    8    1         0.1831452117E-01      0.2140389081E-01
          0                 4           1             5    8     1      -0.1251435807E-04       5    8    1        -0.7487112864E-03      0.8763556424E-03

    ------------------------------------------------
       NWT REQUIRED            4 OUTER ITERATIONS 
       AND A TOTAL OF          7 INNER ITERATIONS.
    ------------------------------------------------

 NO OUTPUT CONTROL FOR STRESS PERIOD   29   TIME STEP   27
 
 SOLVING FOR HEAD 
                                                   Max.-Head-Change                         Max.-Flux-Residual
  Residual-Control   Outer-Iter.   Inner-Iter.     Column Row Layer    Maximum-Head-Change  Column Row Layer    Maximum-Flux-Residual          L2-NORM 
          0                 1           2             3    7     1       0.5343340092E-02       5    8    1         0.2108199203E+00      0.7179592529E+00
          0                 2           2             5    8     1      -0.4625517384E-02       5    8    1        -0.2620842097E+00      0.3062177592E+00
          0                 3           2             5    8     1       0.3149515871E-03       5    8    1         0.1834040068E-01      0.2142907681E-01
          0                 4           1             5    8     1      -0.1253222403E-04       5    8    1        -0.7497550273E-03      0.8775262894E-03

    ------------------------------------------------
       NWT REQUIRED            4 OUTER ITERATIONS 
       AND A TOTAL OF          7 INNER ITERATIONS.
    ------------------------------------------------

 NO OUTPUT CONTROL FOR STRESS PERIOD   29   TIME STEP   28
 
 SOLVING FOR HEAD 
                                                   Max.-Head-Change                         Max.-Flux-Residual
  Residual-Control   Outer-Iter.   Inner-Iter.     Column Row Layer    Maximum-Head-Change  Column Row Layer    Maximum-Flux-Residual          L2-NORM 
          0                 1           2             3    7     1       0.5251108500E-02       5    8    1         0.2143607350E+00      0.7115909281E+00
          0                 2           2             5    8     1      -0.4631761950E-02       5    8    1        -0.2624362378E+00      0.3065490593E+00
          0                 3           2             5    8     1       0.3153757933E-03       5    8    1         0.1836483588E-01      0.2145300626E-01
          0                 4           1             5    8     1      -0.1254910404E-04       5    8    1        -0.7507401983E-03      0.8786504263E-03

    ------------------------------------------------
       NWT REQUIRED            4 OUTER ITERATIONS 
       AND A TOTAL OF          7 INNER ITERATIONS.
    ------------------------------------------------

 NO OUTPUT CONTROL FOR STRESS PERIOD   29   TIME STEP   29
 
 SOLVING FOR HEAD 
                                                   Max.-Head-Change                         Max.-Flux-Residual
  Residual-Control   Outer-Iter.   Inner-Iter.     Column Row Layer    Maximum-Head-Change  Column Row Layer    Maximum-Flux-Residual          L2-NORM 
          0                 1           2             3    7     1       0.5161175425E-02       5    8    1         0.2177083207E+00      0.7055087129E+00
          0                 2           2             5    8     1      -0.4637667890E-02       5    8    1        -0.2627690024E+00      0.3068585821E+00
          0                 3           2             5    8     1       0.3157779622E-03       5    8    1         0.1838798700E-01      0.2147552574E-01
          0                 4           1             5    8     1      -0.1256510655E-04       5    8    1        -0.7516732730E-03      0.8797962935E-03

    ------------------------------------------------
       NWT REQUIRED            4 OUTER ITERATIONS 
       AND A TOTAL OF          7 INNER ITERATIONS.
    ------------------------------------------------

 NO OUTPUT CONTROL FOR STRESS PERIOD   29   TIME STEP   30



 STREAM LISTING     PERIOD     29   STEP       30

 LAYER ROW COL. STREAM  RCH.  FLOW INTO     FLOW TO   FLOW OUT OF   OVRLND.     DIRECT     STREAM       STREAM     STREAM     STREAM   STREAMBED  STREAMBED
                SEG.NO.  NO.  STRM. RCH.    AQUIFER    STRM. RCH.    RUNOFF     PRECIP       ET          HEAD       DEPTH      WIDTH   CONDCTNC.   GRADIENT

   1    1    1     1     1    1.9000E+01  2.1427E-01   1.8786E+01  0.000E+00  0.000E+00  0.000E+00  1.09413E+03  1.082E+00  1.166E+01  5.249E-02  1.361E+00
   1    2    2     1     2    1.8786E+01  3.3054E-01   1.8455E+01  0.000E+00  0.000E+00  0.000E+00  1.08914E+03  1.077E+00  1.158E+01  8.107E-02  1.359E+00
   1    3    3     1     3    1.8455E+01  2.8064E-01   1.8175E+01  0.000E+00  0.000E+00  0.000E+00  1.08349E+03  1.072E+00  1.149E+01  6.892E-02  1.357E+00
   1    3    4     1     4    1.8175E+01  2.5740E-01   1.7917E+01  0.000E+00  0.000E+00  0.000E+00  1.07848E+03  1.068E+00  1.140E+01  6.328E-02  1.356E+00
   1    4    5     2     1    1.5917E+01  3.0542E-01   1.5612E+01  0.000E+00  0.000E+00  0.000E+00  1.07285E+03  9.157E-01  1.200E+01  7.800E-02  1.305E+00
   1    5    6     2     2    1.5612E+01  2.3438E-01   1.5377E+01  0.000E+00  0.000E+00  0.000E+00  1.06742E+03  9.063E-01  1.200E+01  6.000E-02  1.302E+00
   1    6    6     2     3    1.5377E+01  2.3388E-01   1.5143E+01  0.000E+00  0.000E+00  0.000E+00  1.06269E+03  8.980E-01  1.200E+01  6.000E-02  1.299E+00
   1    7    6     2     4    1.5143E+01  2.3338E-01   1.4910E+01  0.000E+00  0.000E+00  0.000E+00  1.05797E+03  8.897E-01  1.200E+01  6.000E-02  1.297E+00
   1    8    6     2     5    1.4910E+01  2.3289E-01   1.4677E+01  0.000E+00  0.000E+00  0.000E+00  1.05324E+03  8.814E-01  1.200E+01  6.000E-02  1.294E+00
   1    3    5     3     1    2.0000E+00  2.8252E-01   1.7175E+00  0.000E+00  0.000E+00  0.000E+00  1.07555E+03  1.909E+00  9.636E+00  7.227E-02  1.955E+00
   1    3    6     3     2    1.7175E+00  2.4905E-01   1.4684E+00  0.000E+00  0.000E+00  0.000E+00  1.07264E+03  1.727E+00  8.909E+00  6.682E-02  1.864E+00
   1    3    7     3     3    1.4684E+00  1.9718E-01   1.2712E+00  0.000E+00  0.000E+00  0.000E+00  1.06987E+03  1.555E+00  8.218E+00  5.547E-02  1.777E+00
   1    4    8     3     4    1.2712E+00  2.2567E-01   1.0456E+00  0.000E+00  0.000E+00  0.000E+00  1.06682E+03  1.364E+00  7.455E+00  6.709E-02  1.682E+00
   1    5    8     3     5    1.0456E+00  1.5790E-01   8.8768E-01  0.000E+00  0.000E+00  0.000E+00  1.06362E+03  1.164E+00  6.655E+00  4.991E-02  1.582E+00
   1    6    8     3     6    8.8768E-01  5.5980E-02   8.3170E-01  0.000E+00  0.000E+00  0.000E+00  1.06158E+03  1.036E+00  6.145E+00  1.844E-02  1.518E+00
   1    5   10     4     1    1.0000E+01  9.0919E-02   9.9091E+00  0.000E+00  0.000E+00  0.000E+00  1.07836E+03  6.368E-01  1.000E+01  2.500E-02  1.212E+00
   1    5    9     4     2    9.9091E+00  1.8158E-01   9.7275E+00  0.000E+00  0.000E+00  0.000E+00  1.07154E+03  6.315E-01  1.000E+01  5.000E-02  1.211E+00
   1    6    8     4     3    9.7275E+00  1.2689E-01   9.6006E+00  0.000E+00  0.000E+00  0.000E+00  1.06381E+03  6.256E-01  1.000E+01  3.500E-02  1.209E+00
   1    6    8     5     1    1.0432E+01  2.2686E-01   1.0205E+01  0.000E+00  0.000E+00  0.000E+00  1.05868E+03  6.790E-01  1.542E+01  6.166E-02  1.226E+00
   1    7    7     5     2    1.0205E+01  2.7894E-01   9.9265E+00  0.000E+00  0.000E+00  0.000E+00  1.05417E+03  6.732E-01  1.519E+01  7.594E-02  1.224E+00
   1    8    7     5     3    9.9265E+00  1.9221E-01   9.7343E+00  0.000E+00  0.000E+00  0.000E+00  1.04992E+03  6.676E-01  1.497E+01  5.241E-02  1.223E+00
   1    8    6     5     4    9.7343E+00  1.3577E-01   9.5985E+00  0.000E+00  0.000E+00  0.000E+00  1.04691E+03  6.637E-01  1.482E+01  3.706E-02  1.221E+00
   1    9    6     6     1    2.4276E+01  2.5176E-01   2.4024E+01  0.000E+00  0.000E+00  0.000E+00  1.04392E+03  1.196E+00  1.200E+01  6.000E-02  1.399E+00
   1   10    7     6     2    2.4024E+01  2.5131E-01   2.3773E+01  0.000E+00  0.000E+00  0.000E+00  1.03937E+03  1.188E+00  1.200E+01  6.000E-02  1.396E+00
   1   11    7     6     3    2.3773E+01  2.5086E-01   2.3522E+01  0.000E+00  0.000E+00  0.000E+00  1.03482E+03  1.181E+00  1.200E+01  6.000E-02  1.394E+00
   1   12    7     6     4    2.3522E+01  2.5041E-01   2.3271E+01  0.000E+00  0.000E+00  0.000E+00  1.03026E+03  1.173E+00  1.200E+01  6.000E-02  1.391E+00
   1   13    7     6     5    2.3271E+01  5.4772E-03   2.3266E+01  0.000E+00  0.000E+00  0.000E+00  1.02708E+03  1.170E+00  1.200E+01  2.400E-02  7.607E-02
   1   14    9     7     1    1.5000E+02  1.3440E+00   1.4866E+02  0.000E+00  0.000E+00  0.000E+00  1.03987E+03  2.288E+00  5.529E+01  5.593E-01  8.010E-01
   1   13    8     7     2    1.4866E+02  1.8896E+00   1.4677E+02  0.000E+00  0.000E+00  0.000E+00  1.03478E+03  2.279E+00  5.526E+01  6.148E-01  1.025E+00
   1   13    7     7     3    1.4677E+02  1.5852E+00   1.4518E+02  0.000E+00  0.000E+00  0.000E+00  1.02969E+03  2.270E+00  5.521E+01  5.584E-01  9.462E-01
   1   13    6     8     1    1.6845E+02  1.0313E+00   1.6742E+02  0.000E+00  0.000E+00  0.000E+00  1.02481E+03  2.939E+00  4.261E+01  4.342E-01  7.917E-01
   1   13    5     8     2    1.6742E+02  2.8146E-01   1.6713E+02  0.000E+00  0.000E+00  0.000E+00  1.01856E+03  2.934E+00  4.255E+01  4.336E-01  2.164E-01
   1   13    4     8     3    1.6713E+02 -2.0831E+00   1.6922E+02  0.000E+00  0.000E+00  0.000E+00  1.01232E+03  2.940E+00  4.263E+01  4.345E+00 -1.598E-01
   1   13    3     8     4    1.6922E+02 -3.4835E+00   1.7270E+02  0.000E+00  0.000E+00  0.000E+00  1.00608E+03  2.958E+00  4.290E+01  4.371E+00 -2.656E-01
   1   13    2     8     5    1.7270E+02 -2.5411E+00   1.7524E+02  0.000E+00  0.000E+00  0.000E+00  9.99853E+02  2.978E+00  4.318E+01  4.400E+00 -1.925E-01
   1   13    1     8     6    1.7524E+02 -1.9750E+00   1.7722E+02  0.000E+00  0.000E+00  0.000E+00  9.94867E+02  2.992E+00  4.339E+01  2.653E+00 -2.482E-01





UNSATURATED ZONE PACKAGE VOLUMETRIC BUDGET FOR  TIME STEP    30 STRESS PERIOD   29
  ------------------------------------------------------------------------------



     CUMULATIVE VOLUMES      L**3       RATES FOR THIS TIME STEP      L**3/T
     ------------------                 ------------------------

           IN:                                      IN:
           ---                                      ---
        INFILTRATION =  1273136432.3342          INFILTRATION =           7.8575

          OUT:                                     OUT:
          ----                                     ----
              UZF ET =  1038630375.7828                UZF ET =           7.8575
        UZF RECHARGE =   147984239.8959          UZF RECHARGE =           0.0067

            IN - OUT =    86521816.6555              IN - OUT =      -6.7334E-03

          STORAGE:                                 STORAGE:
          --------                                 --------
      STORAGE CHANGE =    86523325.7354        STORAGE CHANGE =      -6.7333E-03

 PERCENT DISCREPANCY IS DIFFERENCE BETWEEN IN-OUT MINUS CHANGE IN STORAGE
 DIVIDED BY THE AVERAGE OF IN AND OUT TIMES 100

 PERCENT DISCREPANCY =          -0.00     PERCENT DISCREPANCY =           0.00






1
  VOLUMETRIC BUDGET FOR AGRICULTURAL FIELDS AT TIME STEP   30, STRESS PERIOD  29
  ------------------------------------------------------------------------------

     CUMULATIVE VOLUMES      L**3       RATES FOR THIS TIME STEP      L**3/T
     ------------------                 ------------------------

           IN:                                      IN:
           ---                                      ---
               AG WELLS  =   948493504.0000                 AG WELLS  =           3.4500
      DIVERSION SEGMENTS =           0.0000        DIVERSION SEGMENTS =           0.0000
           GW IRRIGATION =           0.0000             GW IRRIGATION =           0.0000
           SW IRRIGATION =           0.0000             SW IRRIGATION =           0.0000
        SYSTEM LOSSES GW =           0.0000          SYSTEM LOSSES GW =           0.0000
        SYSTEM LOSSES SW =           0.0000          SYSTEM LOSSES SW =           0.0000

                TOTAL IN =   948493504.0000                  TOTAL IN =           3.4500

          OUT:                                     OUT:
          ----                                     ----
               AG WELLS  =           0.0000                 AG WELLS  =           0.0000
      DIVERSION SEGMENTS =           0.0000        DIVERSION SEGMENTS =           0.0000
           GW IRRIGATION =   948493504.0000             GW IRRIGATION =           3.4500
           SW IRRIGATION =           0.0000             SW IRRIGATION =           0.0000
        SYSTEM LOSSES GW =           0.0000          SYSTEM LOSSES GW =           0.0000
        SYSTEM LOSSES SW =           0.0000          SYSTEM LOSSES SW =           0.0000

               TOTAL OUT =   948493504.0000                 TOTAL OUT =           3.4500

                IN - OUT =           0.0000                  IN - OUT =           0.0000

     PERCENT DISCREPANCY =           0.00         PERCENT DISCREPANCY =           0.00



1
  VOLUMETRIC BUDGET FOR ENTIRE MODEL AT END OF TIME STEP   30, STRESS PERIOD  29
  ------------------------------------------------------------------------------

     CUMULATIVE VOLUMES      L**3       RATES FOR THIS TIME STEP      L**3/T
     ------------------                 ------------------------

           IN:                                      IN:
           ---                                      ---
             STORAGE     =  1258892160.0000               STORAGE     =           3.7986
       CONSTANT HEAD     =           0.0000         CONSTANT HEAD     =           0.0000
     HEAD DEP BOUNDS     =    21053920.0000       HEAD DEP BOUNDS     =           0.2863
      STREAM LEAKAGE     =   908908672.0000        STREAM LEAKAGE     =          11.8655
        UZF RECHARGE     =   147984112.0000          UZF RECHARGE     =       6.7322E-03
               GW ET     =           0.0000                 GW ET     =           0.0000
     SURFACE LEAKAGE     =           0.0000       SURFACE LEAKAGE     =           0.0000
           AG WELLS      =           0.0000             AG WELLS      =           0.0000

                TOTAL IN =  2336838912.0000                  TOTAL IN =          15.9572

          OUT:                                     OUT:
          ----                                     ----
             STORAGE     =   585665344.0000               STORAGE     =           2.1351
       CONSTANT HEAD     =           0.0000         CONSTANT HEAD     =           0.0000
     HEAD DEP BOUNDS     =    21630090.0000       HEAD DEP BOUNDS     =           0.2892
      STREAM LEAKAGE     =   763754752.0000        STREAM LEAKAGE     =          10.0827
        UZF RECHARGE     =           0.0000          UZF RECHARGE     =           0.0000
               GW ET     =    17288296.0000                 GW ET     =           0.0000
     SURFACE LEAKAGE     =           0.0000       SURFACE LEAKAGE     =           0.0000
           AG WELLS      =   948493504.0000             AG WELLS      =           3.4500

               TOTAL OUT =  2336832000.0000                 TOTAL OUT =          15.9571

                IN - OUT =        6912.0000                  IN - OUT =       1.8120E-05

     PERCENT DISCREPANCY =           0.00         PERCENT DISCREPANCY =           0.00






         TIME SUMMARY AT END OF TIME STEP   30 IN STRESS PERIOD   29
                    SECONDS     MINUTES      HOURS       DAYS        YEARS
                    -----------------------------------------------------------
   TIME STEP LENGTH  87667.      1461.1      24.352      1.0147     2.77799E-03
 STRESS PERIOD TIME 2.63000E+06  43833.      730.56      30.440     8.33397E-02
         TOTAL TIME 7.37266E+07 1.22878E+06  20480.      853.32      2.3363    
1
1
                            STRESS PERIOD NO.   30, LENGTH =   2630000.    
                            -----------------------------------------------

                              NUMBER OF TIME STEPS =    30

                               MULTIPLIER FOR DELT =     1.000

                            INITIAL TIME STEP SIZE =   87666.66    

 REUSING NON-PARAMETER GHB CELLS FROM LAST STRESS PERIOD

      2 GHB CELLS

 REUSING STREAM SEGMENT DATA FROM LAST STRESS PERIOD



            AREAL INFILTRATION RATE
 READING ON UNIT   19 WITH FORMAT: (10F4.0)            

            1           2           3           4           5           6           7           8           9          10
 ........................................................................................................................
   1   1.2000E-09   0.000       0.000       0.000       0.000       0.000       0.000       0.000       0.000       0.000    
   2   2.1000E-09  2.0000E-09  8.0000E-10  8.5000E-09   0.000       0.000       0.000       0.000       0.000       0.000    
   3   5.0000E-10  1.1000E-09  8.8000E-09  5.5000E-09   0.000       0.000       0.000       0.000       0.000       0.000    
   4   8.5000E-09  1.1000E-09  1.1000E-09  1.1000E-09  2.0000E-09   0.000       0.000       0.000       0.000       0.000    
   5   8.5000E-09  1.1000E-09  1.1000E-09  1.1000E-09  1.1000E-09   0.000       0.000       0.000       0.000       0.000    
   6   8.5000E-09  5.2000E-09  2.1000E-09  1.1000E-09  1.5000E-09   0.000       0.000       0.000       0.000       0.000    
   7   8.5000E-09  5.2000E-09  2.1000E-09  1.2000E-09  2.0000E-09   0.000       0.000       0.000       0.000       0.000    
   8   5.0000E-10  5.2000E-09  2.1000E-09  1.2000E-09  5.0000E-09   0.000       0.000       0.000       0.000       0.000    
   9   5.0000E-10  5.2000E-09  2.1000E-09  1.2000E-09  5.0000E-09   0.000       0.000       0.000       0.000       0.000    
  10   5.0000E-10  5.2000E-09  2.1000E-09  1.2000E-09  5.8000E-09   0.000       0.000       0.000       0.000       0.000    
  11   1.0000E-10  1.1000E-09  1.1000E-09  1.2000E-09  5.0000E-09   0.000       0.000       0.000       0.000       0.000    
  12   1.1000E-09  1.1000E-09  1.1000E-09  1.1000E-09  2.0000E-09   0.000       0.000       0.000       0.000       0.000    
  13   1.1000E-09  2.2000E-09  2.2000E-09  2.1000E-09  1.0000E-09   0.000       0.000       0.000       0.000       0.000    
  14   2.0000E-10  5.5000E-09  5.5000E-09  5.2000E-09  1.0000E-09   0.000       0.000       0.000       0.000       0.000    
  15    0.000      8.8000E-09  8.8000E-09   0.000       0.000       0.000       0.000       0.000       0.000       0.000    

                  ET RATE =  5.000000E-08

 USING ET EXTINCTION DEPTH FROM PREVIOUS STRESS PERIOD. CURRENT PERIOD IS:      30

 USING EXTINCTION WATER CONTENT FROM PREVIOUS STRESS PERIOD. CURRENT PERIOD IS:      30

 USING AIR ENTRY PRESSURE FROM PREVIOUS STRESS PERIOD. CURRENT PERIOD IS:      30

 USING ROOT PRESSURE HEAD FROM PREVIOUS STRESS PERIOD. CURRENT PERIOD IS:      30

 USING ROOT ACTIVITY FROM PREVIOUS STRESS PERIOD. CURRENT PERIOD IS:      30

 PROCESSING AG STRESS PERIOD DATA

 READING AG STRESS PERIOD DATA

 READING IRRIGATION WELL

 END PROCESSING AG STRESS PERIOD DATA OPTIONS
 
 SOLVING FOR HEAD 
                                                   Max.-Head-Change                         Max.-Flux-Residual
  Residual-Control   Outer-Iter.   Inner-Iter.     Column Row Layer    Maximum-Head-Change  Column Row Layer    Maximum-Flux-Residual          L2-NORM 
          0                 1           2             4    7     1      -0.1317466266E-01       4    7    1        -0.6900588671E+00      0.1642050106E+01
          0                 2           2             5    8     1      -0.3307910863E-02       5    8    1        -0.1842265724E+00      0.2445532652E+00
          0                 3           2             5    8     1       0.3217689090E-03       5    8    1         0.1837760839E-01      0.2214708376E-01
          0                 4           1             5    8     1      -0.2191127587E-04       5    8    1        -0.1283377695E-02      0.1436030958E-02

    ------------------------------------------------
       NWT REQUIRED            4 OUTER ITERATIONS 
       AND A TOTAL OF          7 INNER ITERATIONS.
    ------------------------------------------------

 NO OUTPUT CONTROL FOR STRESS PERIOD   30   TIME STEP    1
 
 SOLVING FOR HEAD 
                                                   Max.-Head-Change                         Max.-Flux-Residual
  Residual-Control   Outer-Iter.   Inner-Iter.     Column Row Layer    Maximum-Head-Change  Column Row Layer    Maximum-Flux-Residual          L2-NORM 
          0                 1           2             4    7     1      -0.1313946665E-01       4    7    1        -0.6885592349E+00      0.1618808647E+01
          0                 2           2             5    8     1      -0.3177500586E-02       5    8    1        -0.1770284126E+00      0.2365065469E+00
          0                 3           2             5    8     1       0.3090835943E-03       5    8    1         0.1765762019E-01      0.2133333242E-01
          0                 4           1             5    8     1      -0.2104745263E-04       5    8    1        -0.1232966539E-02      0.1378211966E-02

    ------------------------------------------------
       NWT REQUIRED            4 OUTER ITERATIONS 
       AND A TOTAL OF          7 INNER ITERATIONS.
    ------------------------------------------------

 NO OUTPUT CONTROL FOR STRESS PERIOD   30   TIME STEP    2
 
 SOLVING FOR HEAD 
                                                   Max.-Head-Change                         Max.-Flux-Residual
  Residual-Control   Outer-Iter.   Inner-Iter.     Column Row Layer    Maximum-Head-Change  Column Row Layer    Maximum-Flux-Residual          L2-NORM 
          0                 1           2             4    7     1      -0.1302347916E-01       4    7    1        -0.6827765396E+00      0.1584921216E+01
          0                 2           2             5    8     1      -0.3158298279E-02       5    8    1        -0.1759595569E+00      0.2352726321E+00
          0                 3           2             5    8     1       0.3072157388E-03       5    8    1         0.1755097173E-01      0.2128890638E-01
          0                 4           1             5    8     1      -0.2092025838E-04       5    8    1        -0.1225517214E-02      0.1379240399E-02

    ------------------------------------------------
       NWT REQUIRED            4 OUTER ITERATIONS 
       AND A TOTAL OF          7 INNER ITERATIONS.
    ------------------------------------------------

 NO OUTPUT CONTROL FOR STRESS PERIOD   30   TIME STEP    3
 
 SOLVING FOR HEAD 
                                                   Max.-Head-Change                         Max.-Flux-Residual
  Residual-Control   Outer-Iter.   Inner-Iter.     Column Row Layer    Maximum-Head-Change  Column Row Layer    Maximum-Flux-Residual          L2-NORM 
          0                 1           2             4    7     1      -0.1290326776E-01       4    7    1        -0.6767480000E+00      0.1550470995E+01
          0                 2           2             5    8     1      -0.3205551344E-02       5    8    1        -0.1785584865E+00      0.2363087930E+00
          0                 3           2             5    8     1       0.3118121534E-03       5    8    1         0.1781119463E-01      0.2148941156E-01
          0                 4           1             5    8     1      -0.2123325724E-04       5    8    1        -0.1243755333E-02      0.1398463292E-02

    ------------------------------------------------
       NWT REQUIRED            4 OUTER ITERATIONS 
       AND A TOTAL OF          7 INNER ITERATIONS.
    ------------------------------------------------

 NO OUTPUT CONTROL FOR STRESS PERIOD   30   TIME STEP    4
 
 SOLVING FOR HEAD 
                                                   Max.-Head-Change                         Max.-Flux-Residual
  Residual-Control   Outer-Iter.   Inner-Iter.     Column Row Layer    Maximum-Head-Change  Column Row Layer    Maximum-Flux-Residual          L2-NORM 
          0                 1           2             4    7     1      -0.1277932928E-01       4    7    1        -0.6705007867E+00      0.1517533520E+01
          0                 2           2             5    8     1      -0.3240119560E-02       5    8    1        -0.1804565515E+00      0.2368524346E+00
          0                 3           2             5    8     1       0.3151746831E-03       5    8    1         0.1800133641E-01      0.2162997296E-01
          0                 4           1             5    8     1      -0.2146223307E-04       5    8    1        -0.1257088104E-02      0.1412856259E-02

    ------------------------------------------------
       NWT REQUIRED            4 OUTER ITERATIONS 
       AND A TOTAL OF          7 INNER ITERATIONS.
    ------------------------------------------------

 NO OUTPUT CONTROL FOR STRESS PERIOD   30   TIME STEP    5
 
 SOLVING FOR HEAD 
                                                   Max.-Head-Change                         Max.-Flux-Residual
  Residual-Control   Outer-Iter.   Inner-Iter.     Column Row Layer    Maximum-Head-Change  Column Row Layer    Maximum-Flux-Residual          L2-NORM 
          0                 1           2             4    7     1      -0.1265210997E-01       4    7    1        -0.6640599811E+00      0.1486055985E+01
          0                 2           2             5    8     1      -0.3270934432E-02       5    8    1        -0.1821466639E+00      0.2373130067E+00
          0                 3           2             5    8     1       0.3181721164E-03       5    8    1         0.1817070175E-01      0.2175636671E-01
          0                 4           1             5    8     1      -0.2166634744E-04       5    8    1        -0.1268967805E-02      0.1425909612E-02

    ------------------------------------------------
       NWT REQUIRED            4 OUTER ITERATIONS 
       AND A TOTAL OF          7 INNER ITERATIONS.
    ------------------------------------------------

 NO OUTPUT CONTROL FOR STRESS PERIOD   30   TIME STEP    6
 
 SOLVING FOR HEAD 
                                                   Max.-Head-Change                         Max.-Flux-Residual
  Residual-Control   Outer-Iter.   Inner-Iter.     Column Row Layer    Maximum-Head-Change  Column Row Layer    Maximum-Flux-Residual          L2-NORM 
          0                 1           2             4    7     1      -0.1252216672E-01       4    7    1        -0.6574563647E+00      0.1455948678E+01
          0                 2           2             5    8     1      -0.3300153357E-02       5    8    1        -0.1837480032E+00      0.2377731907E+00
          0                 3           2             5    8     1       0.3210143083E-03       5    8    1         0.1833120834E-01      0.2187808339E-01
          0                 4           1             5    8     1      -0.2185989032E-04       5    8    1        -0.1280228650E-02      0.1438367634E-02

    ------------------------------------------------
       NWT REQUIRED            4 OUTER ITERATIONS 
       AND A TOTAL OF          7 INNER ITERATIONS.
    ------------------------------------------------

 NO OUTPUT CONTROL FOR STRESS PERIOD   30   TIME STEP    7
 
 SOLVING FOR HEAD 
                                                   Max.-Head-Change                         Max.-Flux-Residual
  Residual-Control   Outer-Iter.   Inner-Iter.     Column Row Layer    Maximum-Head-Change  Column Row Layer    Maximum-Flux-Residual          L2-NORM 
          0                 1           2             4    7     1      -0.1238975194E-01       4    7    1        -0.6507041672E+00      0.1427126334E+01
          0                 2           2             5    8     1      -0.3327856910E-02       5    8    1        -0.1852650860E+00      0.2382291099E+00
          0                 3           2             5    8     1       0.3237090961E-03       5    8    1         0.1848330587E-01      0.2199506590E-01
          0                 4           1             5    8     1      -0.2204339541E-04       5    8    1        -0.1290901964E-02      0.1450244339E-02

    ------------------------------------------------
       NWT REQUIRED            4 OUTER ITERATIONS 
       AND A TOTAL OF          7 INNER ITERATIONS.
    ------------------------------------------------

 NO OUTPUT CONTROL FOR STRESS PERIOD   30   TIME STEP    8
 
 SOLVING FOR HEAD 
                                                   Max.-Head-Change                         Max.-Flux-Residual
  Residual-Control   Outer-Iter.   Inner-Iter.     Column Row Layer    Maximum-Head-Change  Column Row Layer    Maximum-Flux-Residual          L2-NORM 
          0                 1           2             4    7     1      -0.1225509620E-01       4    7    1        -0.6438164760E+00      0.1399502682E+01
          0                 2           2             5    8     1      -0.3354168309E-02       5    8    1        -0.1867048280E+00      0.2386806144E+00
          0                 3           2             5    8     1       0.3262684658E-03       5    8    1         0.1862768261E-01      0.2210763631E-01
          0                 4           1             5    8     1      -0.2221767889E-04       5    8    1        -0.1301035732E-02      0.1461589027E-02

    ------------------------------------------------
       NWT REQUIRED            4 OUTER ITERATIONS 
       AND A TOTAL OF          7 INNER ITERATIONS.
    ------------------------------------------------

 NO OUTPUT CONTROL FOR STRESS PERIOD   30   TIME STEP    9
 
 SOLVING FOR HEAD 
                                                   Max.-Head-Change                         Max.-Flux-Residual
  Residual-Control   Outer-Iter.   Inner-Iter.     Column Row Layer    Maximum-Head-Change  Column Row Layer    Maximum-Flux-Residual          L2-NORM 
          0                 1           2             4    7     1      -0.1211882203E-01       4    7    1        -0.6368272868E+00      0.1373017670E+01
          0                 2           2             5    8     1      -0.3379168028E-02       5    8    1        -0.1880717650E+00      0.2391256766E+00
          0                 3           2             5    8     1       0.3286981447E-03       5    8    1         0.1876467026E-01      0.2221573743E-01
          0                 4           1             5    8     1      -0.2238313126E-04       5    8    1        -0.1310652997E-02      0.1472411724E-02

    ------------------------------------------------
       NWT REQUIRED            4 OUTER ITERATIONS 
       AND A TOTAL OF          7 INNER ITERATIONS.
    ------------------------------------------------

 NO OUTPUT CONTROL FOR STRESS PERIOD   30   TIME STEP   10
 
 SOLVING FOR HEAD 
                                                   Max.-Head-Change                         Max.-Flux-Residual
  Residual-Control   Outer-Iter.   Inner-Iter.     Column Row Layer    Maximum-Head-Change  Column Row Layer    Maximum-Flux-Residual          L2-NORM 
          0                 1           2             4    7     1      -0.1198097090E-01       4    7    1        -0.6297394908E+00      0.1347604561E+01
          0                 2           2             5    8     1      -0.3402949045E-02       5    8    1        -0.1893710650E+00      0.2395639914E+00
          0                 3           2             5    8     1       0.3310134792E-03       5    8    1         0.1889514224E-01      0.2231964459E-01
          0                 4           1             5    8     1      -0.2254079707E-04       5    8    1        -0.1319814807E-02      0.1482720007E-02

    ------------------------------------------------
       NWT REQUIRED            4 OUTER ITERATIONS 
       AND A TOTAL OF          7 INNER ITERATIONS.
    ------------------------------------------------

 NO OUTPUT CONTROL FOR STRESS PERIOD   30   TIME STEP   11
 
 SOLVING FOR HEAD 
                                                   Max.-Head-Change                         Max.-Flux-Residual
  Residual-Control   Outer-Iter.   Inner-Iter.     Column Row Layer    Maximum-Head-Change  Column Row Layer    Maximum-Flux-Residual          L2-NORM 
          0                 1           2             4    7     1      -0.1184211938E-01       4    7    1        -0.6225846241E+00      0.1323215666E+01
          0                 2           2             5    8     1      -0.3425568501E-02       5    8    1        -0.1906059913E+00      0.2399944692E+00
          0                 3           2             5    8     1       0.3332137253E-03       5    8    1         0.1901906409E-01      0.2241945627E-01
          0                 4           1             5    8     1      -0.2269062581E-04       5    8    1        -0.1328518535E-02      0.1492580583E-02

    ------------------------------------------------
       NWT REQUIRED            4 OUTER ITERATIONS 
       AND A TOTAL OF          7 INNER ITERATIONS.
    ------------------------------------------------

 NO OUTPUT CONTROL FOR STRESS PERIOD   30   TIME STEP   12
 
 SOLVING FOR HEAD 
                                                   Max.-Head-Change                         Max.-Flux-Residual
  Residual-Control   Outer-Iter.   Inner-Iter.     Column Row Layer    Maximum-Head-Change  Column Row Layer    Maximum-Flux-Residual          L2-NORM 
          0                 1           2             4    7     1      -0.1170226126E-01       4    7    1        -0.6153631961E+00      0.1299750916E+01
          0                 2           2             5    8     1      -0.3447142600E-02       5    8    1        -0.1917808092E+00      0.2403738275E+00
          0                 3           2             5    8     1       0.3353122874E-03       5    8    1         0.1913704613E-01      0.2251355229E-01
          0                 4           1             5    8     1      -0.2283353043E-04       5    8    1        -0.1336811313E-02      0.1502005503E-02

    ------------------------------------------------
       NWT REQUIRED            4 OUTER ITERATIONS 
       AND A TOTAL OF          7 INNER ITERATIONS.
    ------------------------------------------------

 NO OUTPUT CONTROL FOR STRESS PERIOD   30   TIME STEP   13
 
 SOLVING FOR HEAD 
                                                   Max.-Head-Change                         Max.-Flux-Residual
  Residual-Control   Outer-Iter.   Inner-Iter.     Column Row Layer    Maximum-Head-Change  Column Row Layer    Maximum-Flux-Residual          L2-NORM 
          0                 1           2             4    7     1      -0.1156209153E-01       4    7    1        -0.6081061822E+00      0.1277251050E+01
          0                 2           2             5    8     1      -0.3467619439E-02       5    8    1        -0.1928999197E+00      0.2408303459E+00
          0                 3           2             5    8     1       0.3373041154E-03       5    8    1         0.1924931041E-01      0.2260855369E-01
          0                 4           1             5    8     1      -0.2296916635E-04       5    8    1        -0.1344693841E-02      0.1511133921E-02

    ------------------------------------------------
       NWT REQUIRED            4 OUTER ITERATIONS 
       AND A TOTAL OF          7 INNER ITERATIONS.
    ------------------------------------------------

 NO OUTPUT CONTROL FOR STRESS PERIOD   30   TIME STEP   14
 
 SOLVING FOR HEAD 
                                                   Max.-Head-Change                         Max.-Flux-Residual
  Residual-Control   Outer-Iter.   Inner-Iter.     Column Row Layer    Maximum-Head-Change  Column Row Layer    Maximum-Flux-Residual          L2-NORM 
          0                 1           2             4    7     1      -0.1142145069E-01       4    7    1        -0.6008145458E+00      0.1255698907E+01
          0                 2           2             5    8     1      -0.3487180542E-02       5    8    1        -0.1939660094E+00      0.2412405955E+00
          0                 3           2             5    8     1       0.3392068681E-03       5    8    1         0.1935634582E-01      0.2269782983E-01
          0                 4           1             5    8     1      -0.2309873656E-04       5    8    1        -0.1352215323E-02      0.1519795570E-02

    ------------------------------------------------
       NWT REQUIRED            4 OUTER ITERATIONS 
       AND A TOTAL OF          7 INNER ITERATIONS.
    ------------------------------------------------

 NO OUTPUT CONTROL FOR STRESS PERIOD   30   TIME STEP   15
 
 SOLVING FOR HEAD 
                                                   Max.-Head-Change                         Max.-Flux-Residual
  Residual-Control   Outer-Iter.   Inner-Iter.     Column Row Layer    Maximum-Head-Change  Column Row Layer    Maximum-Flux-Residual          L2-NORM 
          0                 1           2             4    7     1      -0.1128072112E-01       4    7    1        -0.5935076911E+00      0.1234941993E+01
          0                 2           2             5    8     1      -0.3505825094E-02       5    8    1        -0.1949813722E+00      0.2416394401E+00
          0                 3           2             5    8     1       0.3410204656E-03       5    8    1         0.1945699629E-01      0.2278213912E-01
          0                 4           1             5    8     1      -0.2322223599E-04       5    8    1        -0.1359200750E-02      0.1527864249E-02

    ------------------------------------------------
       NWT REQUIRED            4 OUTER ITERATIONS 
       AND A TOTAL OF          7 INNER ITERATIONS.
    ------------------------------------------------

 NO OUTPUT CONTROL FOR STRESS PERIOD   30   TIME STEP   16
 
 SOLVING FOR HEAD 
                                                   Max.-Head-Change                         Max.-Flux-Residual
  Residual-Control   Outer-Iter.   Inner-Iter.     Column Row Layer    Maximum-Head-Change  Column Row Layer    Maximum-Flux-Residual          L2-NORM 
          0                 1           2             4    7     1      -0.1114022442E-01       4    7    1        -0.5862035825E+00      0.1214941941E+01
          0                 2           2             5    8     1      -0.3523648688E-02       5    8    1        -0.1959508345E+00      0.2420217539E+00
          0                 3           2             5    8     1       0.3427542067E-03       5    8    1         0.1955342430E-01      0.2286312598E-01
          0                 4           1             5    8     1      -0.2334029749E-04       5    8    1        -0.1365915570E-02      0.1535613834E-02

    ------------------------------------------------
       NWT REQUIRED            4 OUTER ITERATIONS 
       AND A TOTAL OF          7 INNER ITERATIONS.
    ------------------------------------------------

 NO OUTPUT CONTROL FOR STRESS PERIOD   30   TIME STEP   17
 
 SOLVING FOR HEAD 
                                                   Max.-Head-Change                         Max.-Flux-Residual
  Residual-Control   Outer-Iter.   Inner-Iter.     Column Row Layer    Maximum-Head-Change  Column Row Layer    Maximum-Flux-Residual          L2-NORM 
          0                 1           2             4    7     1      -0.1099987233E-01       4    7    1        -0.5788973110E+00      0.1195664456E+01
          0                 2           2             5    8     1      -0.3540655776E-02       5    8    1        -0.1968756781E+00      0.2424002222E+00
          0                 3           2             5    8     1       0.3444085245E-03       5    8    1         0.1964670878E-01      0.2294255804E-01
          0                 4           1             5    8     1      -0.2345295018E-04       5    8    1        -0.1372499857E-02      0.1543246009E-02

    ------------------------------------------------
       NWT REQUIRED            4 OUTER ITERATIONS 
       AND A TOTAL OF          7 INNER ITERATIONS.
    ------------------------------------------------

 NO OUTPUT CONTROL FOR STRESS PERIOD   30   TIME STEP   18
 
 SOLVING FOR HEAD 
                                                   Max.-Head-Change                         Max.-Flux-Residual
  Residual-Control   Outer-Iter.   Inner-Iter.     Column Row Layer    Maximum-Head-Change  Column Row Layer    Maximum-Flux-Residual          L2-NORM 
          0                 1           2             4    7     1      -0.1085995139E-01       4    7    1        -0.5716054304E+00      0.1177056931E+01
          0                 2           2             5    8     1      -0.3556923476E-02       5    8    1        -0.1977596401E+00      0.2427685524E+00
          0                 3           2             5    8     1       0.3459909208E-03       5    8    1         0.1973588606E-01      0.2301907862E-01
          0                 4           1             5    8     1      -0.2356070598E-04       5    8    1        -0.1378795365E-02      0.1550879624E-02

    ------------------------------------------------
       NWT REQUIRED            4 OUTER ITERATIONS 
       AND A TOTAL OF          7 INNER ITERATIONS.
    ------------------------------------------------

 NO OUTPUT CONTROL FOR STRESS PERIOD   30   TIME STEP   19
 
 SOLVING FOR HEAD 
                                                   Max.-Head-Change                         Max.-Flux-Residual
  Residual-Control   Outer-Iter.   Inner-Iter.     Column Row Layer    Maximum-Head-Change  Column Row Layer    Maximum-Flux-Residual          L2-NORM 
          0                 1           2             4    7     1      -0.1072047433E-01       4    7    1        -0.5643285608E+00      0.1159094772E+01
          0                 2           2             5    8     1      -0.3572480120E-02       5    8    1        -0.1986043719E+00      0.2431267229E+00
          0                 3           2             5    8     1       0.3475041503E-03       5    8    1         0.1982112062E-01      0.2309275605E-01
          0                 4           1             5    8     1      -0.2366375128E-04       5    8    1        -0.1384813523E-02      0.1557611034E-02

    ------------------------------------------------
       NWT REQUIRED            4 OUTER ITERATIONS 
       AND A TOTAL OF          7 INNER ITERATIONS.
    ------------------------------------------------

 NO OUTPUT CONTROL FOR STRESS PERIOD   30   TIME STEP   20
 
 SOLVING FOR HEAD 
                                                   Max.-Head-Change                         Max.-Flux-Residual
  Residual-Control   Outer-Iter.   Inner-Iter.     Column Row Layer    Maximum-Head-Change  Column Row Layer    Maximum-Flux-Residual          L2-NORM 
          0                 1           2             4    7     1      -0.1058185092E-01       4    7    1        -0.5570893968E+00      0.1141755926E+01
          0                 2           2             5    8     1      -0.3587369669E-02       5    8    1        -0.1994122938E+00      0.2434752224E+00
          0                 3           2             5    8     1       0.3489524903E-03       5    8    1         0.1990265527E-01      0.2316375019E-01
          0                 4           1             5    8     1      -0.2376237776E-04       5    8    1        -0.1390571394E-02      0.1564364136E-02

    ------------------------------------------------
       NWT REQUIRED            4 OUTER ITERATIONS 
       AND A TOTAL OF          7 INNER ITERATIONS.
    ------------------------------------------------

 NO OUTPUT CONTROL FOR STRESS PERIOD   30   TIME STEP   21
 
 SOLVING FOR HEAD 
                                                   Max.-Head-Change                         Max.-Flux-Residual
  Residual-Control   Outer-Iter.   Inner-Iter.     Column Row Layer    Maximum-Head-Change  Column Row Layer    Maximum-Flux-Residual          L2-NORM 
          0                 1           2             4    7     1      -0.1044406112E-01       4    7    1        -0.5498871498E+00      0.1125005574E+01
          0                 2           2             5    8     1      -0.3601643907E-02       5    8    1        -0.2001863139E+00      0.2438147577E+00
          0                 3           2             5    8     1       0.3503409771E-03       5    8    1         0.1998078148E-01      0.2323220986E-01
          0                 4           1             5    8     1      -0.2385692873E-04       5    8    1        -0.1396089449E-02      0.1570860655E-02

    ------------------------------------------------
       NWT REQUIRED            4 OUTER ITERATIONS 
       AND A TOTAL OF          7 INNER ITERATIONS.
    ------------------------------------------------

 NO OUTPUT CONTROL FOR STRESS PERIOD   30   TIME STEP   22
 
 SOLVING FOR HEAD 
                                                   Max.-Head-Change                         Max.-Flux-Residual
  Residual-Control   Outer-Iter.   Inner-Iter.     Column Row Layer    Maximum-Head-Change  Column Row Layer    Maximum-Flux-Residual          L2-NORM 
          0                 1           2             4    7     1      -0.1030721620E-01       4    7    1        -0.5427281258E+00      0.1108823380E+01
          0                 2           2             5    8     1      -0.3615309537E-02       5    8    1        -0.2009267925E+00      0.2441445034E+00
          0                 3           2             5    8     1       0.3516702639E-03       5    8    1         0.2005553571E-01      0.2329815618E-01
          0                 4           1             5    8     1      -0.2394744845E-04       5    8    1        -0.1401370240E-02      0.1577095447E-02

    ------------------------------------------------
       NWT REQUIRED            4 OUTER ITERATIONS 
       AND A TOTAL OF          7 INNER ITERATIONS.
    ------------------------------------------------

 NO OUTPUT CONTROL FOR STRESS PERIOD   30   TIME STEP   23
 
 SOLVING FOR HEAD 
                                                   Max.-Head-Change                         Max.-Flux-Residual
  Residual-Control   Outer-Iter.   Inner-Iter.     Column Row Layer    Maximum-Head-Change  Column Row Layer    Maximum-Flux-Residual          L2-NORM 
          0                 1           2             4    7     1      -0.1017128322E-01       4    7    1        -0.5356107497E+00      0.1093170450E+01
          0                 2           2             5    8     1      -0.3628434899E-02       5    8    1        -0.2016375215E+00      0.2444664006E+00
          0                 3           2             5    8     1       0.3529469977E-03       5    8    1         0.2012729746E-01      0.2336187314E-01
          0                 4           1             5    8     1      -0.2403438955E-04       5    8    1        -0.1406440388E-02      0.1583106940E-02

    ------------------------------------------------
       NWT REQUIRED            4 OUTER ITERATIONS 
       AND A TOTAL OF          7 INNER ITERATIONS.
    ------------------------------------------------

 NO OUTPUT CONTROL FOR STRESS PERIOD   30   TIME STEP   24
 
 SOLVING FOR HEAD 
                                                   Max.-Head-Change                         Max.-Flux-Residual
  Residual-Control   Outer-Iter.   Inner-Iter.     Column Row Layer    Maximum-Head-Change  Column Row Layer    Maximum-Flux-Residual          L2-NORM 
          0                 1           2             4    7     1      -0.1003662719E-01       4    7    1        -0.5285553469E+00      0.1078040723E+01
          0                 2           2             5    8     1      -0.3641033891E-02       5    8    1        -0.2023192783E+00      0.2447798360E+00
          0                 3           2             5    8     1       0.3541725294E-03       5    8    1         0.2019597242E-01      0.2342302860E-01
          0                 4           1             5    8     1      -0.2411784338E-04       5    8    1        -0.1411281560E-02      0.1588845090E-02

    ------------------------------------------------
       NWT REQUIRED            4 OUTER ITERATIONS 
       AND A TOTAL OF          7 INNER ITERATIONS.
    ------------------------------------------------

 NO OUTPUT CONTROL FOR STRESS PERIOD   30   TIME STEP   25
 
 SOLVING FOR HEAD 
                                                   Max.-Head-Change                         Max.-Flux-Residual
  Residual-Control   Outer-Iter.   Inner-Iter.     Column Row Layer    Maximum-Head-Change  Column Row Layer    Maximum-Flux-Residual          L2-NORM 
          0                 1           2             4    7     1      -0.9903053918E-02       4    7    1        -0.5215514655E+00      0.1063392072E+01
          0                 2           2             5    8     1      -0.3653138625E-02       5    8    1        -0.2029738735E+00      0.2450852715E+00
          0                 3           2             5    8     1       0.3553499845E-03       5    8    1         0.2026184790E-01      0.2348195794E-01
          0                 4           1             5    8     1      -0.2419802403E-04       5    8    1        -0.1415921133E-02      0.1594350930E-02

    ------------------------------------------------
       NWT REQUIRED            4 OUTER ITERATIONS 
       AND A TOTAL OF          7 INNER ITERATIONS.
    ------------------------------------------------

 NO OUTPUT CONTROL FOR STRESS PERIOD   30   TIME STEP   26
 
 SOLVING FOR HEAD 
                                                   Max.-Head-Change                         Max.-Flux-Residual
  Residual-Control   Outer-Iter.   Inner-Iter.     Column Row Layer    Maximum-Head-Change  Column Row Layer    Maximum-Flux-Residual          L2-NORM 
          0                 1           2             4    7     1      -0.9770909373E-02       4    7    1        -0.5146184132E+00      0.1049222364E+01
          0                 2           2             5    8     1      -0.3664761944E-02       5    8    1        -0.2036019972E+00      0.2453824023E+00
          0                 3           2             5    8     1       0.3564806106E-03       5    8    1         0.2032507266E-01      0.2353879948E-01
          0                 4           1             5    8     1      -0.2427501562E-04       5    8    1        -0.1420374905E-02      0.1599646588E-02

    ------------------------------------------------
       NWT REQUIRED            4 OUTER ITERATIONS 
       AND A TOTAL OF          7 INNER ITERATIONS.
    ------------------------------------------------

 NO OUTPUT CONTROL FOR STRESS PERIOD   30   TIME STEP   27
 
 SOLVING FOR HEAD 
                                                   Max.-Head-Change                         Max.-Flux-Residual
  Residual-Control   Outer-Iter.   Inner-Iter.     Column Row Layer    Maximum-Head-Change  Column Row Layer    Maximum-Flux-Residual          L2-NORM 
          0                 1           2             4    7     1      -0.9640117500E-02       4    7    1        -0.5077520963E+00      0.1035504583E+01
          0                 2           2             5    8     1      -0.3675942865E-02       5    8    1        -0.2042058298E+00      0.2456722468E+00
          0                 3           2             5    8     1       0.3575661026E-03       5    8    1         0.2038574479E-01      0.2359362922E-01
          0                 4           1             5    8     1      -0.2434893341E-04       5    8    1        -0.1424649687E-02      0.1604743030E-02

    ------------------------------------------------
       NWT REQUIRED            4 OUTER ITERATIONS 
       AND A TOTAL OF          7 INNER ITERATIONS.
    ------------------------------------------------

 NO OUTPUT CONTROL FOR STRESS PERIOD   30   TIME STEP   28
 
 SOLVING FOR HEAD 
                                                   Max.-Head-Change                         Max.-Flux-Residual
  Residual-Control   Outer-Iter.   Inner-Iter.     Column Row Layer    Maximum-Head-Change  Column Row Layer    Maximum-Flux-Residual          L2-NORM 
          0                 1           2             4    7     1      -0.9510601512E-02       4    7    1        -0.5009485719E+00      0.1022221078E+01
          0                 2           2             5    8     1      -0.3686711481E-02       5    8    1        -0.2047870122E+00      0.2459555491E+00
          0                 3           2             5    8     1       0.3586156911E-03       5    8    1         0.2044438666E-01      0.2364689634E-01
          0                 4           1             5    8     1      -0.2442040673E-04       5    8    1        -0.1428782115E-02      0.1609699372E-02

    ------------------------------------------------
       NWT REQUIRED            4 OUTER ITERATIONS 
       AND A TOTAL OF          7 INNER ITERATIONS.
    ------------------------------------------------

 NO OUTPUT CONTROL FOR STRESS PERIOD   30   TIME STEP   29
 
 SOLVING FOR HEAD 
                                                   Max.-Head-Change                         Max.-Flux-Residual
  Residual-Control   Outer-Iter.   Inner-Iter.     Column Row Layer    Maximum-Head-Change  Column Row Layer    Maximum-Flux-Residual          L2-NORM 
          0                 1           2             4    7     1      -0.9382690067E-02       4    7    1        -0.4942258891E+00      0.1009357607E+01
          0                 2           2             5    8     1      -0.3697071520E-02       5    8    1        -0.2053458175E+00      0.2462318424E+00
          0                 3           2             5    8     1       0.3596234354E-03       5    8    1         0.2050066593E-01      0.2369828996E-01
          0                 4           1             5    8     1      -0.2448903026E-04       5    8    1        -0.1432748767E-02      0.1614422410E-02

    ------------------------------------------------
       NWT REQUIRED            4 OUTER ITERATIONS 
       AND A TOTAL OF          7 INNER ITERATIONS.
    ------------------------------------------------

 NO OUTPUT CONTROL FOR STRESS PERIOD   30   TIME STEP   30



 STREAM LISTING     PERIOD     30   STEP       30

 LAYER ROW COL. STREAM  RCH.  FLOW INTO     FLOW TO   FLOW OUT OF   OVRLND.     DIRECT     STREAM       STREAM     STREAM     STREAM   STREAMBED  STREAMBED
                SEG.NO.  NO.  STRM. RCH.    AQUIFER    STRM. RCH.    RUNOFF     PRECIP       ET          HEAD       DEPTH      WIDTH   CONDCTNC.   GRADIENT

   1    1    1     1     1    1.9000E+01  2.1427E-01   1.8786E+01  0.000E+00  0.000E+00  0.000E+00  1.09413E+03  1.082E+00  1.166E+01  5.249E-02  1.361E+00
   1    2    2     1     2    1.8786E+01  3.3054E-01   1.8455E+01  0.000E+00  0.000E+00  0.000E+00  1.08914E+03  1.077E+00  1.158E+01  8.107E-02  1.359E+00
   1    3    3     1     3    1.8455E+01  2.8064E-01   1.8175E+01  0.000E+00  0.000E+00  0.000E+00  1.08349E+03  1.072E+00  1.149E+01  6.892E-02  1.357E+00
   1    3    4     1     4    1.8175E+01  2.5740E-01   1.7917E+01  0.000E+00  0.000E+00  0.000E+00  1.07848E+03  1.068E+00  1.140E+01  6.328E-02  1.356E+00
   1    4    5     2     1    1.5917E+01  3.0542E-01   1.5612E+01  0.000E+00  0.000E+00  0.000E+00  1.07285E+03  9.157E-01  1.200E+01  7.800E-02  1.305E+00
   1    5    6     2     2    1.5612E+01  2.3438E-01   1.5377E+01  0.000E+00  0.000E+00  0.000E+00  1.06742E+03  9.063E-01  1.200E+01  6.000E-02  1.302E+00
   1    6    6     2     3    1.5377E+01  2.3388E-01   1.5143E+01  0.000E+00  0.000E+00  0.000E+00  1.06269E+03  8.980E-01  1.200E+01  6.000E-02  1.299E+00
   1    7    6     2     4    1.5143E+01  2.3338E-01   1.4910E+01  0.000E+00  0.000E+00  0.000E+00  1.05797E+03  8.897E-01  1.200E+01  6.000E-02  1.297E+00
   1    8    6     2     5    1.4910E+01  2.3289E-01   1.4677E+01  0.000E+00  0.000E+00  0.000E+00  1.05324E+03  8.814E-01  1.200E+01  6.000E-02  1.294E+00
   1    3    5     3     1    2.0000E+00  2.8252E-01   1.7175E+00  0.000E+00  0.000E+00  0.000E+00  1.07555E+03  1.909E+00  9.636E+00  7.227E-02  1.955E+00
   1    3    6     3     2    1.7175E+00  2.4905E-01   1.4684E+00  0.000E+00  0.000E+00  0.000E+00  1.07264E+03  1.727E+00  8.909E+00  6.682E-02  1.864E+00
   1    3    7     3     3    1.4684E+00  1.9718E-01   1.2712E+00  0.000E+00  0.000E+00  0.000E+00  1.06987E+03  1.555E+00  8.218E+00  5.547E-02  1.777E+00
   1    4    8     3     4    1.2712E+00  2.2567E-01   1.0456E+00  0.000E+00  0.000E+00  0.000E+00  1.06682E+03  1.364E+00  7.455E+00  6.709E-02  1.682E+00
   1    5    8     3     5    1.0456E+00  1.5790E-01   8.8768E-01  0.000E+00  0.000E+00  0.000E+00  1.06362E+03  1.164E+00  6.655E+00  4.991E-02  1.582E+00
   1    6    8     3     6    8.8768E-01  5.5980E-02   8.3170E-01  0.000E+00  0.000E+00  0.000E+00  1.06158E+03  1.036E+00  6.145E+00  1.844E-02  1.518E+00
   1    5   10     4     1    1.0000E+01  9.0919E-02   9.9091E+00  0.000E+00  0.000E+00  0.000E+00  1.07836E+03  6.368E-01  1.000E+01  2.500E-02  1.212E+00
   1    5    9     4     2    9.9091E+00  1.8158E-01   9.7275E+00  0.000E+00  0.000E+00  0.000E+00  1.07154E+03  6.315E-01  1.000E+01  5.000E-02  1.211E+00
   1    6    8     4     3    9.7275E+00  1.2689E-01   9.6006E+00  0.000E+00  0.000E+00  0.000E+00  1.06381E+03  6.256E-01  1.000E+01  3.500E-02  1.209E+00
   1    6    8     5     1    1.0432E+01  2.2686E-01   1.0205E+01  0.000E+00  0.000E+00  0.000E+00  1.05868E+03  6.790E-01  1.542E+01  6.166E-02  1.226E+00
   1    7    7     5     2    1.0205E+01  2.7894E-01   9.9265E+00  0.000E+00  0.000E+00  0.000E+00  1.05417E+03  6.732E-01  1.519E+01  7.594E-02  1.224E+00
   1    8    7     5     3    9.9265E+00  1.9221E-01   9.7343E+00  0.000E+00  0.000E+00  0.000E+00  1.04992E+03  6.676E-01  1.497E+01  5.241E-02  1.223E+00
   1    8    6     5     4    9.7343E+00  1.3577E-01   9.5985E+00  0.000E+00  0.000E+00  0.000E+00  1.04691E+03  6.637E-01  1.482E+01  3.706E-02  1.221E+00
   1    9    6     6     1    2.4276E+01  2.5176E-01   2.4024E+01  0.000E+00  0.000E+00  0.000E+00  1.04392E+03  1.196E+00  1.200E+01  6.000E-02  1.399E+00
   1   10    7     6     2    2.4024E+01  2.5131E-01   2.3773E+01  0.000E+00  0.000E+00  0.000E+00  1.03937E+03  1.188E+00  1.200E+01  6.000E-02  1.396E+00
   1   11    7     6     3    2.3773E+01  2.5086E-01   2.3522E+01  0.000E+00  0.000E+00  0.000E+00  1.03482E+03  1.181E+00  1.200E+01  6.000E-02  1.394E+00
   1   12    7     6     4    2.3522E+01  2.5041E-01   2.3271E+01  0.000E+00  0.000E+00  0.000E+00  1.03026E+03  1.173E+00  1.200E+01  6.000E-02  1.391E+00
   1   13    7     6     5    2.3271E+01  5.9271E-03   2.3265E+01  0.000E+00  0.000E+00  0.000E+00  1.02708E+03  1.170E+00  1.200E+01  2.400E-02  8.232E-02
   1   14    9     7     1    1.5000E+02  1.3458E+00   1.4865E+02  0.000E+00  0.000E+00  0.000E+00  1.03987E+03  2.288E+00  5.529E+01  5.593E-01  8.021E-01
   1   13    8     7     2    1.4865E+02  1.8967E+00   1.4676E+02  0.000E+00  0.000E+00  0.000E+00  1.03478E+03  2.279E+00  5.526E+01  6.148E-01  1.028E+00
   1   13    7     7     3    1.4676E+02  1.5956E+00   1.4516E+02  0.000E+00  0.000E+00  0.000E+00  1.02969E+03  2.270E+00  5.521E+01  5.584E-01  9.525E-01
   1   13    6     8     1    1.6843E+02  1.0394E+00   1.6739E+02  0.000E+00  0.000E+00  0.000E+00  1.02481E+03  2.939E+00  4.261E+01  4.342E-01  7.980E-01
   1   13    5     8     2    1.6739E+02  2.8734E-01   1.6710E+02  0.000E+00  0.000E+00  0.000E+00  1.01856E+03  2.934E+00  4.255E+01  4.336E-01  2.209E-01
   1   13    4     8     3    1.6710E+02 -2.0627E+00   1.6916E+02  0.000E+00  0.000E+00  0.000E+00  1.01232E+03  2.940E+00  4.263E+01  4.344E+00 -1.583E-01
   1   13    3     8     4    1.6916E+02 -3.4674E+00   1.7263E+02  0.000E+00  0.000E+00  0.000E+00  1.00608E+03  2.958E+00  4.289E+01  4.371E+00 -2.644E-01
   1   13    2     8     5    1.7263E+02 -2.5358E+00   1.7517E+02  0.000E+00  0.000E+00  0.000E+00  9.99852E+02  2.977E+00  4.317E+01  4.399E+00 -1.921E-01
   1   13    1     8     6    1.7517E+02 -1.9733E+00   1.7714E+02  0.000E+00  0.000E+00  0.000E+00  9.94867E+02  2.992E+00  4.338E+01  2.652E+00 -2.480E-01





UNSATURATED ZONE PACKAGE VOLUMETRIC BUDGET FOR  TIME STEP    30 STRESS PERIOD   30
  ------------------------------------------------------------------------------



     CUMULATIVE VOLUMES      L**3       RATES FOR THIS TIME STEP      L**3/T
     ------------------                 ------------------------

           IN:                                      IN:
           ---                                      ---
        INFILTRATION =  1303659377.2502          INFILTRATION =          11.6075

          OUT:                                     OUT:
          ----                                     ----
              UZF ET =  1069158099.4723                UZF ET =          11.6075
        UZF RECHARGE =   147997375.4376          UZF RECHARGE =           0.0040

            IN - OUT =    86503902.3404              IN - OUT =      -4.0051E-03

          STORAGE:                                 STORAGE:
          --------                                 --------
      STORAGE CHANGE =    86505411.4915        STORAGE CHANGE =      -4.0050E-03

 PERCENT DISCREPANCY IS DIFFERENCE BETWEEN IN-OUT MINUS CHANGE IN STORAGE
 DIVIDED BY THE AVERAGE OF IN AND OUT TIMES 100

 PERCENT DISCREPANCY =          -0.00     PERCENT DISCREPANCY =           0.00






1
  VOLUMETRIC BUDGET FOR AGRICULTURAL FIELDS AT TIME STEP   30, STRESS PERIOD  30
  ------------------------------------------------------------------------------

     CUMULATIVE VOLUMES      L**3       RATES FOR THIS TIME STEP      L**3/T
     ------------------                 ------------------------

           IN:                                      IN:
           ---                                      ---
               AG WELLS  =   967423936.0000                 AG WELLS  =           7.2000
      DIVERSION SEGMENTS =           0.0000        DIVERSION SEGMENTS =           0.0000
           GW IRRIGATION =           0.0000             GW IRRIGATION =           0.0000
           SW IRRIGATION =           0.0000             SW IRRIGATION =           0.0000
        SYSTEM LOSSES GW =           0.0000          SYSTEM LOSSES GW =           0.0000
        SYSTEM LOSSES SW =           0.0000          SYSTEM LOSSES SW =           0.0000

                TOTAL IN =   967423936.0000                  TOTAL IN =           7.2000

          OUT:                                     OUT:
          ----                                     ----
               AG WELLS  =           0.0000                 AG WELLS  =           0.0000
      DIVERSION SEGMENTS =           0.0000        DIVERSION SEGMENTS =           0.0000
           GW IRRIGATION =   967423936.0000             GW IRRIGATION =           7.2000
           SW IRRIGATION =           0.0000             SW IRRIGATION =           0.0000
        SYSTEM LOSSES GW =           0.0000          SYSTEM LOSSES GW =           0.0000
        SYSTEM LOSSES SW =           0.0000          SYSTEM LOSSES SW =           0.0000

               TOTAL OUT =   967423936.0000                 TOTAL OUT =           7.2000

                IN - OUT =           0.0000                  IN - OUT =           0.0000

     PERCENT DISCREPANCY =           0.00         PERCENT DISCREPANCY =           0.00



1
  VOLUMETRIC BUDGET FOR ENTIRE MODEL AT END OF TIME STEP   30, STRESS PERIOD  30
  ------------------------------------------------------------------------------

     CUMULATIVE VOLUMES      L**3       RATES FOR THIS TIME STEP      L**3/T
     ------------------                 ------------------------

           IN:                                      IN:
           ---                                      ---
             STORAGE     =  1275876096.0000               STORAGE     =           5.8720
       CONSTANT HEAD     =           0.0000         CONSTANT HEAD     =           0.0000
     HEAD DEP BOUNDS     =    21807096.0000       HEAD DEP BOUNDS     =           0.2864
      STREAM LEAKAGE     =   940162624.0000        STREAM LEAKAGE     =          11.8995
        UZF RECHARGE     =   147997248.0000          UZF RECHARGE     =       4.0047E-03
               GW ET     =           0.0000                 GW ET     =           0.0000
     SURFACE LEAKAGE     =           0.0000       SURFACE LEAKAGE     =           0.0000
           AG WELLS      =           0.0000             AG WELLS      =           0.0000

                TOTAL IN =  2385842944.0000                  TOTAL IN =          18.0620

          OUT:                                     OUT:
          ----                                     ----
             STORAGE     =   588525760.0000               STORAGE     =           0.5334
       CONSTANT HEAD     =           0.0000         CONSTANT HEAD     =           0.0000
     HEAD DEP BOUNDS     =    22390758.0000       HEAD DEP BOUNDS     =           0.2892
      STREAM LEAKAGE     =   790206592.0000        STREAM LEAKAGE     =          10.0393
        UZF RECHARGE     =           0.0000          UZF RECHARGE     =           0.0000
               GW ET     =    17288296.0000                 GW ET     =           0.0000
     SURFACE LEAKAGE     =           0.0000       SURFACE LEAKAGE     =           0.0000
           AG WELLS      =   967423936.0000             AG WELLS      =           7.2000

               TOTAL OUT =  2385835264.0000                 TOTAL OUT =          18.0619

                IN - OUT =        7680.0000                  IN - OUT =       6.8665E-05

     PERCENT DISCREPANCY =           0.00         PERCENT DISCREPANCY =           0.00






         TIME SUMMARY AT END OF TIME STEP   30 IN STRESS PERIOD   30
                    SECONDS     MINUTES      HOURS       DAYS        YEARS
                    -----------------------------------------------------------
   TIME STEP LENGTH  87667.      1461.1      24.352      1.0147     2.77799E-03
 STRESS PERIOD TIME 2.63000E+06  43833.      730.56      30.440     8.33397E-02
         TOTAL TIME 7.63565E+07 1.27261E+06  21210.      883.76      2.4196    
1
1
                            STRESS PERIOD NO.   31, LENGTH =   2630000.    
                            -----------------------------------------------

                              NUMBER OF TIME STEPS =    30

                               MULTIPLIER FOR DELT =     1.000

                            INITIAL TIME STEP SIZE =   87666.66    

 REUSING NON-PARAMETER GHB CELLS FROM LAST STRESS PERIOD

      2 GHB CELLS

 REUSING STREAM SEGMENT DATA FROM LAST STRESS PERIOD



            AREAL INFILTRATION RATE
 READING ON UNIT   19 WITH FORMAT: (10F4.0)            

            1           2           3           4           5           6           7           8           9          10
 ........................................................................................................................
   1   1.2000E-09   0.000       0.000       0.000       0.000       0.000       0.000       0.000       0.000       0.000    
   2   2.1000E-09  2.0000E-09  8.0000E-10  8.5000E-09   0.000       0.000       0.000       0.000       0.000       0.000    
   3   5.0000E-10  1.1000E-09  8.8000E-09  5.5000E-09   0.000       0.000       0.000       0.000       0.000       0.000    
   4   8.5000E-09  1.1000E-09  1.1000E-09  1.1000E-09  2.0000E-09   0.000       0.000       0.000       0.000       0.000    
   5   8.5000E-09  1.1000E-09  1.1000E-09  1.1000E-09  1.1000E-09   0.000       0.000       0.000       0.000       0.000    
   6   8.5000E-09  5.2000E-09  2.1000E-09  1.1000E-09  1.5000E-09   0.000       0.000       0.000       0.000       0.000    
   7   8.5000E-09  5.2000E-09  2.1000E-09  1.2000E-09  2.0000E-09   0.000       0.000       0.000       0.000       0.000    
   8   5.0000E-10  5.2000E-09  2.1000E-09  1.2000E-09  5.0000E-09   0.000       0.000       0.000       0.000       0.000    
   9   5.0000E-10  5.2000E-09  2.1000E-09  1.2000E-09  5.0000E-09   0.000       0.000       0.000       0.000       0.000    
  10   5.0000E-10  5.2000E-09  2.1000E-09  1.2000E-09  5.8000E-09   0.000       0.000       0.000       0.000       0.000    
  11   1.0000E-10  1.1000E-09  1.1000E-09  1.2000E-09  5.0000E-09   0.000       0.000       0.000       0.000       0.000    
  12   1.1000E-09  1.1000E-09  1.1000E-09  1.1000E-09  2.0000E-09   0.000       0.000       0.000       0.000       0.000    
  13   1.1000E-09  2.2000E-09  2.2000E-09  2.1000E-09  1.0000E-09   0.000       0.000       0.000       0.000       0.000    
  14   2.0000E-10  5.5000E-09  5.5000E-09  5.2000E-09  1.0000E-09   0.000       0.000       0.000       0.000       0.000    
  15    0.000      8.8000E-09  8.8000E-09   0.000       0.000       0.000       0.000       0.000       0.000       0.000    

                  ET RATE =  1.500000E-07

 USING ET EXTINCTION DEPTH FROM PREVIOUS STRESS PERIOD. CURRENT PERIOD IS:      31

 USING EXTINCTION WATER CONTENT FROM PREVIOUS STRESS PERIOD. CURRENT PERIOD IS:      31

 USING AIR ENTRY PRESSURE FROM PREVIOUS STRESS PERIOD. CURRENT PERIOD IS:      31

 USING ROOT PRESSURE HEAD FROM PREVIOUS STRESS PERIOD. CURRENT PERIOD IS:      31

 USING ROOT ACTIVITY FROM PREVIOUS STRESS PERIOD. CURRENT PERIOD IS:      31

 PROCESSING AG STRESS PERIOD DATA

 READING AG STRESS PERIOD DATA

 READING IRRIGATION WELL

 END PROCESSING AG STRESS PERIOD DATA OPTIONS
 
 SOLVING FOR HEAD 
                                                   Max.-Head-Change                         Max.-Flux-Residual
  Residual-Control   Outer-Iter.   Inner-Iter.     Column Row Layer    Maximum-Head-Change  Column Row Layer    Maximum-Flux-Residual          L2-NORM 
          0                 1           2             4    7     1      -0.5714057425E-01       4    7    1        -0.2987579177E+01      0.6958507855E+01
          0                 2           2             4    7     1       0.5556438780E-02       4    7    1         0.2987559774E+00      0.6291270862E+00
          0                 3           2             4    7     1      -0.3783774954E-03       4    7    1        -0.2091318314E-01      0.4403952793E-01
          0                 4           1             4    7     1       0.1505178915E-04       4    7    1         0.8551118890E-03      0.1800656820E-02

    ------------------------------------------------
       NWT REQUIRED            4 OUTER ITERATIONS 
       AND A TOTAL OF          7 INNER ITERATIONS.
    ------------------------------------------------

 NO OUTPUT CONTROL FOR STRESS PERIOD   31   TIME STEP    1
 
 SOLVING FOR HEAD 
                                                   Max.-Head-Change                         Max.-Flux-Residual
  Residual-Control   Outer-Iter.   Inner-Iter.     Column Row Layer    Maximum-Head-Change  Column Row Layer    Maximum-Flux-Residual          L2-NORM 
          0                 1           2             4    7     1      -0.5683579998E-01       4    7    1        -0.2972834455E+01      0.6889957650E+01
          0                 2           2             4    7     1       0.5526558735E-02       4    7    1         0.2972639261E+00      0.6240282191E+00
          0                 3           2             4    7     1      -0.3763386026E-03       4    7    1        -0.2080850266E-01      0.4368238754E-01
          0                 4           1             4    7     1       0.1497479734E-04       4    7    1         0.8510688579E-03      0.1786383820E-02

    ------------------------------------------------
       NWT REQUIRED            4 OUTER ITERATIONS 
       AND A TOTAL OF          7 INNER ITERATIONS.
    ------------------------------------------------

 NO OUTPUT CONTROL FOR STRESS PERIOD   31   TIME STEP    2
 
 SOLVING FOR HEAD 
                                                   Max.-Head-Change                         Max.-Flux-Residual
  Residual-Control   Outer-Iter.   Inner-Iter.     Column Row Layer    Maximum-Head-Change  Column Row Layer    Maximum-Flux-Residual          L2-NORM 
          0                 1           2             4    7     1      -0.5644038518E-01       4    7    1        -0.2953204308E+01      0.6773096753E+01
          0                 2           2             4    7     1       0.5488054413E-02       4    7    1         0.2953007665E+00      0.6124409184E+00
          0                 3           2             4    7     1      -0.3737166209E-03       4    7    1        -0.2067108279E-01      0.4287126874E-01
          0                 4           1             4    7     1       0.1487046640E-04       4    7    1         0.8454483748E-03      0.1753207273E-02

    ------------------------------------------------
       NWT REQUIRED            4 OUTER ITERATIONS 
       AND A TOTAL OF          7 INNER ITERATIONS.
    ------------------------------------------------

 NO OUTPUT CONTROL FOR STRESS PERIOD   31   TIME STEP    3
 
 SOLVING FOR HEAD 
                                                   Max.-Head-Change                         Max.-Flux-Residual
  Residual-Control   Outer-Iter.   Inner-Iter.     Column Row Layer    Maximum-Head-Change  Column Row Layer    Maximum-Flux-Residual          L2-NORM 
          0                 1           2             4    7     1      -0.5602901422E-01       4    7    1        -0.2932652391E+01      0.6661482861E+01
          0                 2           2             4    7     1       0.5448036906E-02       4    7    1         0.2932454476E+00      0.6024611391E+00
          0                 3           2             4    7     1      -0.3709915942E-03       4    7    1        -0.2052721160E-01      0.4217267900E-01
          0                 4           1             4    7     1       0.1476203854E-04       4    7    1         0.8395640225E-03      0.1724755236E-02

    ------------------------------------------------
       NWT REQUIRED            4 OUTER ITERATIONS 
       AND A TOTAL OF          7 INNER ITERATIONS.
    ------------------------------------------------

 NO OUTPUT CONTROL FOR STRESS PERIOD   31   TIME STEP    4
 
 SOLVING FOR HEAD 
                                                   Max.-Head-Change                         Max.-Flux-Residual
  Residual-Control   Outer-Iter.   Inner-Iter.     Column Row Layer    Maximum-Head-Change  Column Row Layer    Maximum-Flux-Residual          L2-NORM 
          0                 1           2             4    7     1      -0.5560359437E-01       4    7    1        -0.2911285781E+01      0.6554909915E+01
          0                 2           2             4    7     1       0.5406653885E-02       4    7    1         0.2911086751E+00      0.5929728915E+00
          0                 3           2             4    7     1      -0.3681735786E-03       4    7    1        -0.2037763848E-01      0.4150849630E-01
          0                 4           1             4    7     1       0.1464990690E-04       4    7    1         0.8334464794E-03      0.1697589894E-02

    ------------------------------------------------
       NWT REQUIRED            4 OUTER ITERATIONS 
       AND A TOTAL OF          7 INNER ITERATIONS.
    ------------------------------------------------

 NO OUTPUT CONTROL FOR STRESS PERIOD   31   TIME STEP    5
 
 SOLVING FOR HEAD 
                                                   Max.-Head-Change                         Max.-Flux-Residual
  Residual-Control   Outer-Iter.   Inner-Iter.     Column Row Layer    Maximum-Head-Change  Column Row Layer    Maximum-Flux-Residual          L2-NORM 
          0                 1           2             4    7     1      -0.5516542053E-01       4    7    1        -0.2889176026E+01      0.6453021345E+01
          0                 2           2             4    7     1       0.5364030456E-02       4    7    1         0.2888976028E+00      0.5839205775E+00
          0                 3           2             4    7     1      -0.3652710937E-03       4    7    1        -0.2022286425E-01      0.4087483053E-01
          0                 4           1             4    7     1       0.1453441435E-04       4    7    1         0.8271161928E-03      0.1671671667E-02

    ------------------------------------------------
       NWT REQUIRED            4 OUTER ITERATIONS 
       AND A TOTAL OF          7 INNER ITERATIONS.
    ------------------------------------------------

 NO OUTPUT CONTROL FOR STRESS PERIOD   31   TIME STEP    6
 
 SOLVING FOR HEAD 
                                                   Max.-Head-Change                         Max.-Flux-Residual
  Residual-Control   Outer-Iter.   Inner-Iter.     Column Row Layer    Maximum-Head-Change  Column Row Layer    Maximum-Flux-Residual          L2-NORM 
          0                 1           2             4    7     1      -0.5471610433E-01       4    7    1        -0.2866412330E+01      0.6355496591E+01
          0                 2           2             4    7     1       0.5320323375E-02       4    7    1         0.2866211499E+00      0.5752728660E+00
          0                 3           2             4    7     1      -0.3622948144E-03       4    7    1        -0.2006351325E-01      0.4026948524E-01
          0                 4           1             4    7     1       0.1441598351E-04       4    7    1         0.8205987231E-03      0.1646846251E-02

    ------------------------------------------------
       NWT REQUIRED            4 OUTER ITERATIONS 
       AND A TOTAL OF          7 INNER ITERATIONS.
    ------------------------------------------------

 NO OUTPUT CONTROL FOR STRESS PERIOD   31   TIME STEP    7
 
 SOLVING FOR HEAD 
                                                   Max.-Head-Change                         Max.-Flux-Residual
  Residual-Control   Outer-Iter.   Inner-Iter.     Column Row Layer    Maximum-Head-Change  Column Row Layer    Maximum-Flux-Residual          L2-NORM 
          0                 1           2             4    7     1      -0.5425689155E-01       4    7    1        -0.2843063579E+01      0.6262043053E+01
          0                 2           2             4    7     1       0.5275653797E-02       4    7    1         0.2842862040E+00      0.5670008438E+00
          0                 3           2             4    7     1      -0.3592529890E-03       4    7    1        -0.1990006761E-01      0.3969040463E-01
          0                 4           1             4    7     1       0.1429494836E-04       4    7    1         0.8139137879E-03      0.1623229471E-02

    ------------------------------------------------
       NWT REQUIRED            4 OUTER ITERATIONS 
       AND A TOTAL OF          7 INNER ITERATIONS.
    ------------------------------------------------

 NO OUTPUT CONTROL FOR STRESS PERIOD   31   TIME STEP    8
 
 SOLVING FOR HEAD 
                                                   Max.-Head-Change                         Max.-Flux-Residual
  Residual-Control   Outer-Iter.   Inner-Iter.     Column Row Layer    Maximum-Head-Change  Column Row Layer    Maximum-Flux-Residual          L2-NORM 
          0                 1           2             4    7     1      -0.5378908605E-01       4    7    1        -0.2819201706E+01      0.6172405409E+01
          0                 2           2             4    7     1       0.5230148544E-02       4    7    1         0.2818999573E+00      0.5590799277E+00
          0                 3           2             4    7     1      -0.3561542575E-03       4    7    1        -0.1973303083E-01      0.3913593614E-01
          0                 4           1             4    7     1       0.1417164682E-04       4    7    1         0.8070819779E-03      0.1600553239E-02

    ------------------------------------------------
       NWT REQUIRED            4 OUTER ITERATIONS 
       AND A TOTAL OF          7 INNER ITERATIONS.
    ------------------------------------------------

 NO OUTPUT CONTROL FOR STRESS PERIOD   31   TIME STEP    9
 
 SOLVING FOR HEAD 
                                                   Max.-Head-Change                         Max.-Flux-Residual
  Residual-Control   Outer-Iter.   Inner-Iter.     Column Row Layer    Maximum-Head-Change  Column Row Layer    Maximum-Flux-Residual          L2-NORM 
          0                 1           2             4    7     1      -0.5331389381E-01       4    7    1        -0.2794894315E+01      0.6086322441E+01
          0                 2           2             4    7     1       0.5183924912E-02       4    7    1         0.2794691693E+00      0.5514845857E+00
          0                 3           2             4    7     1      -0.3530066054E-03       4    7    1        -0.1956287603E-01      0.3860425831E-01
          0                 4           1             4    7     1       0.1404639881E-04       4    7    1         0.8001226290E-03      0.1578803411E-02

    ------------------------------------------------
       NWT REQUIRED            4 OUTER ITERATIONS 
       AND A TOTAL OF          7 INNER ITERATIONS.
    ------------------------------------------------

 NO OUTPUT CONTROL FOR STRESS PERIOD   31   TIME STEP   10
 
 SOLVING FOR HEAD 
                                                   Max.-Head-Change                         Max.-Flux-Residual
  Residual-Control   Outer-Iter.   Inner-Iter.     Column Row Layer    Maximum-Head-Change  Column Row Layer    Maximum-Flux-Residual          L2-NORM 
          0                 1           2             4    7     1      -0.5283245393E-01       4    7    1        -0.2770203937E+01      0.6003584263E+01
          0                 2           2             4    7     1       0.5137099934E-02       4    7    1         0.2770000923E+00      0.5442533129E+00
          0                 3           2             4    7     1      -0.3498179964E-03       4    7    1        -0.1939004092E-01      0.3809805534E-01
          0                 4           1             4    7     1       0.1391951945E-04       4    7    1         0.7930536731E-03      0.1558041094E-02

    ------------------------------------------------
       NWT REQUIRED            4 OUTER ITERATIONS 
       AND A TOTAL OF          7 INNER ITERATIONS.
    ------------------------------------------------

 NO OUTPUT CONTROL FOR STRESS PERIOD   31   TIME STEP   11
 
 SOLVING FOR HEAD 
                                                   Max.-Head-Change                         Max.-Flux-Residual
  Residual-Control   Outer-Iter.   Inner-Iter.     Column Row Layer    Maximum-Head-Change  Column Row Layer    Maximum-Flux-Residual          L2-NORM 
          0                 1           2             4    7     1      -0.5234578388E-01       4    7    1        -0.2745189299E+01      0.5923776722E+01
          0                 2           2             4    7     1       0.5089755513E-02       4    7    1         0.2744985979E+00      0.5371868412E+00
          0                 3           2             4    7     1      -0.3465940225E-03       4    7    1        -0.1921493651E-01      0.3760343078E-01
          0                 4           1             4    7     1       0.1379123437E-04       4    7    1         0.7858918866E-03      0.1537810974E-02

    ------------------------------------------------
       NWT REQUIRED            4 OUTER ITERATIONS 
       AND A TOTAL OF          7 INNER ITERATIONS.
    ------------------------------------------------

 NO OUTPUT CONTROL FOR STRESS PERIOD   31   TIME STEP   12
 
 SOLVING FOR HEAD 
                                                   Max.-Head-Change                         Max.-Flux-Residual
  Residual-Control   Outer-Iter.   Inner-Iter.     Column Row Layer    Maximum-Head-Change  Column Row Layer    Maximum-Flux-Residual          L2-NORM 
          0                 1           2             4    7     1      -0.5185486733E-01       4    7    1        -0.2719904070E+01      0.5846625050E+01
          0                 2           2             4    7     1       0.5042002665E-02       4    7    1         0.2719700522E+00      0.5304382020E+00
          0                 3           2             4    7     1      -0.3433422331E-03       4    7    1        -0.1903793844E-01      0.3713102127E-01
          0                 4           1             4    7     1       0.1366184442E-04       4    7    1         0.7786526417E-03      0.1518550731E-02

    ------------------------------------------------
       NWT REQUIRED            4 OUTER ITERATIONS 
       AND A TOTAL OF          7 INNER ITERATIONS.
    ------------------------------------------------

 NO OUTPUT CONTROL FOR STRESS PERIOD   31   TIME STEP   13
 
 SOLVING FOR HEAD 
                                                   Max.-Head-Change                         Max.-Flux-Residual
  Residual-Control   Outer-Iter.   Inner-Iter.     Column Row Layer    Maximum-Head-Change  Column Row Layer    Maximum-Flux-Residual          L2-NORM 
          0                 1           2             4    7     1      -0.5136047186E-01       4    7    1        -0.2694391100E+01      0.5772297514E+01
          0                 2           2             4    7     1       0.4993911518E-02       4    7    1         0.2694187397E+00      0.5239429179E+00
          0                 3           2             4    7     1      -0.3400674059E-03       4    7    1        -0.1885934662E-01      0.3667634935E-01
          0                 4           1             4    7     1       0.1353153586E-04       4    7    1         0.7713482178E-03      0.1499956121E-02

    ------------------------------------------------
       NWT REQUIRED            4 OUTER ITERATIONS 
       AND A TOTAL OF          7 INNER ITERATIONS.
    ------------------------------------------------

 NO OUTPUT CONTROL FOR STRESS PERIOD   31   TIME STEP   14
 
 SOLVING FOR HEAD 
                                                   Max.-Head-Change                         Max.-Flux-Residual
  Residual-Control   Outer-Iter.   Inner-Iter.     Column Row Layer    Maximum-Head-Change  Column Row Layer    Maximum-Flux-Residual          L2-NORM 
          0                 1           2             4    7     1      -0.5086357888E-01       4    7    1        -0.2668705095E+01      0.5700637036E+01
          0                 2           2             4    7     1       0.4945577521E-02       4    7    1         0.2668501304E+00      0.5176862125E+00
          0                 3           2             4    7     1      -0.3367760404E-03       4    7    1        -0.1867954396E-01      0.3623837537E-01
          0                 4           1             4    7     1       0.1340056924E-04       4    7    1         0.7639942758E-03      0.1482041978E-02

    ------------------------------------------------
       NWT REQUIRED            4 OUTER ITERATIONS 
       AND A TOTAL OF          7 INNER ITERATIONS.
    ------------------------------------------------

 NO OUTPUT CONTROL FOR STRESS PERIOD   31   TIME STEP   15
 
 SOLVING FOR HEAD 
                                                   Max.-Head-Change                         Max.-Flux-Residual
  Residual-Control   Outer-Iter.   Inner-Iter.     Column Row Layer    Maximum-Head-Change  Column Row Layer    Maximum-Flux-Residual          L2-NORM 
          0                 1           2             4    7     1      -0.5036496166E-01       4    7    1        -0.2642889607E+01      0.5631476642E+01
          0                 2           2             4    7     1       0.4897075890E-02       4    7    1         0.2642685787E+00      0.5116526975E+00
          0                 3           2             4    7     1      -0.3334732589E-03       4    7    1        -0.1849883526E-01      0.3581601370E-01
          0                 4           1             4    7     1       0.1326914671E-04       4    7    1         0.7566032875E-03      0.1464716183E-02

    ------------------------------------------------
       NWT REQUIRED            4 OUTER ITERATIONS 
       AND A TOTAL OF          7 INNER ITERATIONS.
    ------------------------------------------------

 NO OUTPUT CONTROL FOR STRESS PERIOD   31   TIME STEP   16
 
 SOLVING FOR HEAD 
                                                   Max.-Head-Change                         Max.-Flux-Residual
  Residual-Control   Outer-Iter.   Inner-Iter.     Column Row Layer    Maximum-Head-Change  Column Row Layer    Maximum-Flux-Residual          L2-NORM 
          0                 1           2             4    7     1      -0.4986520886E-01       4    7    1        -0.2616977403E+01      0.5564684827E+01
          0                 2           2             4    7     1       0.4848463871E-02       4    7    1         0.2616773607E+00      0.5058303288E+00
          0                 3           2             4    7     1      -0.3301629599E-03       4    7    1        -0.1831744990E-01      0.3540844307E-01
          0                 4           1             4    7     1       0.1313742876E-04       4    7    1         0.7491846179E-03      0.1448098496E-02

    ------------------------------------------------
       NWT REQUIRED            4 OUTER ITERATIONS 
       AND A TOTAL OF          7 INNER ITERATIONS.
    ------------------------------------------------

 NO OUTPUT CONTROL FOR STRESS PERIOD   31   TIME STEP   17
 
 SOLVING FOR HEAD 
                                                   Max.-Head-Change                         Max.-Flux-Residual
  Residual-Control   Outer-Iter.   Inner-Iter.     Column Row Layer    Maximum-Head-Change  Column Row Layer    Maximum-Flux-Residual          L2-NORM 
          0                 1           2             4    7     1      -0.4936512462E-01       4    7    1        -0.2591013662E+01      0.5500125349E+01
          0                 2           2             4    7     1       0.4799819679E-02       4    7    1         0.2590809940E+00      0.5002064780E+00
          0                 3           2             4    7     1      -0.3268504693E-03       4    7    1        -0.1813570406E-01      0.3501477168E-01
          0                 4           1             4    7     1       0.1300562182E-04       4    7    1         0.7417512065E-03      0.1431996866E-02

    ------------------------------------------------
       NWT REQUIRED            4 OUTER ITERATIONS 
       AND A TOTAL OF          7 INNER ITERATIONS.
    ------------------------------------------------

 NO OUTPUT CONTROL FOR STRESS PERIOD   31   TIME STEP   18
 
 SOLVING FOR HEAD 
                                                   Max.-Head-Change                         Max.-Flux-Residual
  Residual-Control   Outer-Iter.   Inner-Iter.     Column Row Layer    Maximum-Head-Change  Column Row Layer    Maximum-Flux-Residual          L2-NORM 
          0                 1           2             4    7     1      -0.4886519146E-01       4    7    1        -0.2565025422E+01      0.5437685370E+01
          0                 2           2             4    7     1       0.4751190243E-02       4    7    1         0.2564821818E+00      0.4947707459E+00
          0                 3           2             4    7     1      -0.3235389828E-03       4    7    1        -0.1795378701E-01      0.3463426651E-01
          0                 4           1             4    7     1       0.1287385460E-04       4    7    1         0.7343107904E-03      0.1416437422E-02

    ------------------------------------------------
       NWT REQUIRED            4 OUTER ITERATIONS 
       AND A TOTAL OF          7 INNER ITERATIONS.
    ------------------------------------------------

 NO OUTPUT CONTROL FOR STRESS PERIOD   31   TIME STEP   19
 
 SOLVING FOR HEAD 
                                                   Max.-Head-Change                         Max.-Flux-Residual
  Residual-Control   Outer-Iter.   Inner-Iter.     Column Row Layer    Maximum-Head-Change  Column Row Layer    Maximum-Flux-Residual          L2-NORM 
          0                 1           2             4    7     1      -0.4836611761E-01       4    7    1        -0.2539052357E+01      0.5377252710E+01
          0                 2           2             4    7     1       0.4702644451E-02       4    7    1         0.2538848909E+00      0.4895134157E+00
          0                 3           2             4    7     1      -0.3202331912E-03       4    7    1        -0.1777197640E-01      0.3426625128E-01
          0                 4           1             4    7     1       0.1274231187E-04       4    7    1         0.7268747152E-03      0.1401332352E-02

    ------------------------------------------------
       NWT REQUIRED            4 OUTER ITERATIONS 
       AND A TOTAL OF          7 INNER ITERATIONS.
    ------------------------------------------------

 NO OUTPUT CONTROL FOR STRESS PERIOD   31   TIME STEP   20
 
 SOLVING FOR HEAD 
                                                   Max.-Head-Change                         Max.-Flux-Residual
  Residual-Control   Outer-Iter.   Inner-Iter.     Column Row Layer    Maximum-Head-Change  Column Row Layer    Maximum-Flux-Residual          L2-NORM 
          0                 1           2             4    7     1      -0.4786841647E-01       4    7    1        -0.2513123861E+01      0.5318726056E+01
          0                 2           2             4    7     1       0.4654232229E-02       4    7    1         0.2512920604E+00      0.4844247998E+00
          0                 3           2             4    7     1      -0.3169364955E-03       4    7    1        -0.1759047800E-01      0.3391004698E-01
          0                 4           1             4    7     1       0.1261113583E-04       4    7    1         0.7194514415E-03      0.1386815644E-02

    ------------------------------------------------
       NWT REQUIRED            4 OUTER ITERATIONS 
       AND A TOTAL OF          7 INNER ITERATIONS.
    ------------------------------------------------

 NO OUTPUT CONTROL FOR STRESS PERIOD   31   TIME STEP   21
 
 SOLVING FOR HEAD 
                                                   Max.-Head-Change                         Max.-Flux-Residual
  Residual-Control   Outer-Iter.   Inner-Iter.     Column Row Layer    Maximum-Head-Change  Column Row Layer    Maximum-Flux-Residual          L2-NORM 
          0                 1           2             4    7     1      -0.4737243228E-01       4    7    1        -0.2487259226E+01      0.5262007396E+01
          0                 2           2             4    7     1       0.4605987065E-02       4    7    1         0.2487056192E+00      0.4794961818E+00
          0                 3           2             4    7     1      -0.3136511748E-03       4    7    1        -0.1740942681E-01      0.3356504170E-01
          0                 4           1             4    7     1       0.1248040959E-04       4    7    1         0.7120464227E-03      0.1372705059E-02

    ------------------------------------------------
       NWT REQUIRED            4 OUTER ITERATIONS 
       AND A TOTAL OF          7 INNER ITERATIONS.
    ------------------------------------------------

 NO OUTPUT CONTROL FOR STRESS PERIOD   31   TIME STEP   22
 
 SOLVING FOR HEAD 
                                                   Max.-Head-Change                         Max.-Flux-Residual
  Residual-Control   Outer-Iter.   Inner-Iter.     Column Row Layer    Maximum-Head-Change  Column Row Layer    Maximum-Flux-Residual          L2-NORM 
          0                 1           2             4    7     1      -0.4687860833E-01       4    7    1        -0.2461483629E+01      0.5207014929E+01
          0                 2           2             4    7     1       0.4557952070E-02       4    7    1         0.2461280847E+00      0.4747204745E+00
          0                 3           2             4    7     1      -0.3103801656E-03       4    7    1        -0.1722899906E-01      0.3323073907E-01
          0                 4           1             4    7     1       0.1235025312E-04       4    7    1         0.7046669200E-03      0.1359032800E-02

    ------------------------------------------------
       NWT REQUIRED            4 OUTER ITERATIONS 
       AND A TOTAL OF          7 INNER ITERATIONS.
    ------------------------------------------------

 NO OUTPUT CONTROL FOR STRESS PERIOD   31   TIME STEP   23
 
 SOLVING FOR HEAD 
                                                   Max.-Head-Change                         Max.-Flux-Residual
  Residual-Control   Outer-Iter.   Inner-Iter.     Column Row Layer    Maximum-Head-Change  Column Row Layer    Maximum-Flux-Residual          L2-NORM 
          0                 1           2             4    7     1      -0.4638748320E-01       4    7    1        -0.2435827379E+01      0.5153664997E+01
          0                 2           2             4    7     1       0.4510179632E-02       4    7    1         0.2435624872E+00      0.4700901145E+00
          0                 3           2             4    7     1      -0.3071270356E-03       4    7    1        -0.1704940690E-01      0.3290660924E-01
          0                 4           1             4    7     1       0.1222080618E-04       4    7    1         0.6973215995E-03      0.1345727307E-02

    ------------------------------------------------
       NWT REQUIRED            4 OUTER ITERATIONS 
       AND A TOTAL OF          7 INNER ITERATIONS.
    ------------------------------------------------

 NO OUTPUT CONTROL FOR STRESS PERIOD   31   TIME STEP   24
 
 SOLVING FOR HEAD 
                                                   Max.-Head-Change                         Max.-Flux-Residual
  Residual-Control   Outer-Iter.   Inner-Iter.     Column Row Layer    Maximum-Head-Change  Column Row Layer    Maximum-Flux-Residual          L2-NORM 
          0                 1           2             4    7     1      -0.4589941377E-01       4    7    1        -0.2410311075E+01      0.5101875088E+01
          0                 2           2             4    7     1       0.4462704454E-02       4    7    1         0.2410108864E+00      0.4655975879E+00
          0                 3           2             4    7     1      -0.3038941473E-03       4    7    1        -0.1687079448E-01      0.3259212691E-01
          0                 4           1             4    7     1       0.1209216640E-04       4    7    1         0.6900163401E-03      0.1332866088E-02

    ------------------------------------------------
       NWT REQUIRED            4 OUTER ITERATIONS 
       AND A TOTAL OF          7 INNER ITERATIONS.
    ------------------------------------------------

 NO OUTPUT CONTROL FOR STRESS PERIOD   31   TIME STEP   25
 
 SOLVING FOR HEAD 
                                                   Max.-Head-Change                         Max.-Flux-Residual
  Residual-Control   Outer-Iter.   Inner-Iter.     Column Row Layer    Maximum-Head-Change  Column Row Layer    Maximum-Flux-Residual          L2-NORM 
          0                 1           2             4    7     1      -0.4541472825E-01       4    7    1        -0.2384953220E+01      0.5051579097E+01
          0                 2           2             4    7     1       0.4415558461E-02       4    7    1         0.2384751325E+00      0.4612374903E+00
          0                 3           2             4    7     1      -0.3006836749E-03       4    7    1        -0.1669329132E-01      0.3228692143E-01
          0                 4           1             4    7     1       0.1196442069E-04       4    7    1         0.6827564425E-03      0.1320434394E-02

    ------------------------------------------------
       NWT REQUIRED            4 OUTER ITERATIONS 
       AND A TOTAL OF          7 INNER ITERATIONS.
    ------------------------------------------------

 NO OUTPUT CONTROL FOR STRESS PERIOD   31   TIME STEP   26
 
 SOLVING FOR HEAD 
                                                   Max.-Head-Change                         Max.-Flux-Residual
  Residual-Control   Outer-Iter.   Inner-Iter.     Column Row Layer    Maximum-Head-Change  Column Row Layer    Maximum-Flux-Residual          L2-NORM 
          0                 1           2             4    7     1      -0.4493358973E-01       4    7    1        -0.2359763511E+01      0.5002715825E+01
          0                 2           2             4    7     1       0.4368757518E-02       4    7    1         0.2359561948E+00      0.4570039521E+00
          0                 3           2             4    7     1      -0.2974966970E-03       4    7    1        -0.1651696526E-01      0.3199056049E-01
          0                 4           1             4    7     1       0.1183760799E-04       4    7    1         0.6755447012E-03      0.1308310946E-02

    ------------------------------------------------
       NWT REQUIRED            4 OUTER ITERATIONS 
       AND A TOTAL OF          7 INNER ITERATIONS.
    ------------------------------------------------

 NO OUTPUT CONTROL FOR STRESS PERIOD   31   TIME STEP   27
 
 SOLVING FOR HEAD 
                                                   Max.-Head-Change                         Max.-Flux-Residual
  Residual-Control   Outer-Iter.   Inner-Iter.     Column Row Layer    Maximum-Head-Change  Column Row Layer    Maximum-Flux-Residual          L2-NORM 
          0                 1           2             4    7     1      -0.4445653940E-01       4    7    1        -0.2334772369E+01      0.4955218502E+01
          0                 2           2             4    7     1       0.4322354263E-02       4    7    1         0.2334571151E+00      0.4528915468E+00
          0                 3           2             4    7     1      -0.2943368062E-03       4    7    1        -0.1634202929E-01      0.3170270632E-01
          0                 4           1             4    7     1       0.1171187311E-04       4    7    1         0.6683898323E-03      0.1296538556E-02

    ------------------------------------------------
       NWT REQUIRED            4 OUTER ITERATIONS 
       AND A TOTAL OF          7 INNER ITERATIONS.
    ------------------------------------------------

 NO OUTPUT CONTROL FOR STRESS PERIOD   31   TIME STEP   28
 
 SOLVING FOR HEAD 
                                                   Max.-Head-Change                         Max.-Flux-Residual
  Residual-Control   Outer-Iter.   Inner-Iter.     Column Row Layer    Maximum-Head-Change  Column Row Layer    Maximum-Flux-Residual          L2-NORM 
          0                 1           2             4    7     1      -0.4398354236E-01       4    7    1        -0.2309978569E+01      0.4909029379E+01
          0                 2           2             4    7     1       0.4276345297E-02       4    7    1         0.2309777708E+00      0.4488948985E+00
          0                 3           2             4    7     1      -0.2912037603E-03       4    7    1        -0.1616847476E-01      0.3142293483E-01
          0                 4           1             4    7     1       0.1158720419E-04       4    7    1         0.6612914251E-03      0.1285052397E-02

    ------------------------------------------------
       NWT REQUIRED            4 OUTER ITERATIONS 
       AND A TOTAL OF          7 INNER ITERATIONS.
    ------------------------------------------------

 NO OUTPUT CONTROL FOR STRESS PERIOD   31   TIME STEP   29
 
 SOLVING FOR HEAD 
                                                   Max.-Head-Change                         Max.-Flux-Residual
  Residual-Control   Outer-Iter.   Inner-Iter.     Column Row Layer    Maximum-Head-Change  Column Row Layer    Maximum-Flux-Residual          L2-NORM 
          0                 1           2             4    7     1      -0.4351495139E-01       4    7    1        -0.2285402264E+01      0.4864092489E+01
          0                 2           2             4    7     1       0.4230764930E-02       4    7    1         0.2285201769E+00      0.4450092627E+00
          0                 3           2             4    7     1      -0.2880999006E-03       4    7    1        -0.1599644276E-01      0.3115093867E-01
          0                 4           1             4    7     1       0.1146370083E-04       4    7    1         0.6542553012E-03      0.1273971099E-02

    ------------------------------------------------
       NWT REQUIRED            4 OUTER ITERATIONS 
       AND A TOTAL OF          7 INNER ITERATIONS.
    ------------------------------------------------

 NO OUTPUT CONTROL FOR STRESS PERIOD   31   TIME STEP   30



 STREAM LISTING     PERIOD     31   STEP       30

 LAYER ROW COL. STREAM  RCH.  FLOW INTO     FLOW TO   FLOW OUT OF   OVRLND.     DIRECT     STREAM       STREAM     STREAM     STREAM   STREAMBED  STREAMBED
                SEG.NO.  NO.  STRM. RCH.    AQUIFER    STRM. RCH.    RUNOFF     PRECIP       ET          HEAD       DEPTH      WIDTH   CONDCTNC.   GRADIENT

   1    1    1     1     1    1.9000E+01  2.1427E-01   1.8786E+01  0.000E+00  0.000E+00  0.000E+00  1.09413E+03  1.082E+00  1.166E+01  5.249E-02  1.361E+00
   1    2    2     1     2    1.8786E+01  3.3054E-01   1.8455E+01  0.000E+00  0.000E+00  0.000E+00  1.08914E+03  1.077E+00  1.158E+01  8.107E-02  1.359E+00
   1    3    3     1     3    1.8455E+01  2.8064E-01   1.8175E+01  0.000E+00  0.000E+00  0.000E+00  1.08349E+03  1.072E+00  1.149E+01  6.892E-02  1.357E+00
   1    3    4     1     4    1.8175E+01  2.5740E-01   1.7917E+01  0.000E+00  0.000E+00  0.000E+00  1.07848E+03  1.068E+00  1.140E+01  6.328E-02  1.356E+00
   1    4    5     2     1    1.5917E+01  3.0542E-01   1.5612E+01  0.000E+00  0.000E+00  0.000E+00  1.07285E+03  9.157E-01  1.200E+01  7.800E-02  1.305E+00
   1    5    6     2     2    1.5612E+01  2.3438E-01   1.5377E+01  0.000E+00  0.000E+00  0.000E+00  1.06742E+03  9.063E-01  1.200E+01  6.000E-02  1.302E+00
   1    6    6     2     3    1.5377E+01  2.3388E-01   1.5143E+01  0.000E+00  0.000E+00  0.000E+00  1.06269E+03  8.980E-01  1.200E+01  6.000E-02  1.299E+00
   1    7    6     2     4    1.5143E+01  2.3338E-01   1.4910E+01  0.000E+00  0.000E+00  0.000E+00  1.05797E+03  8.897E-01  1.200E+01  6.000E-02  1.297E+00
   1    8    6     2     5    1.4910E+01  2.3289E-01   1.4677E+01  0.000E+00  0.000E+00  0.000E+00  1.05324E+03  8.814E-01  1.200E+01  6.000E-02  1.294E+00
   1    3    5     3     1    2.0000E+00  2.8252E-01   1.7175E+00  0.000E+00  0.000E+00  0.000E+00  1.07555E+03  1.909E+00  9.636E+00  7.227E-02  1.955E+00
   1    3    6     3     2    1.7175E+00  2.4905E-01   1.4684E+00  0.000E+00  0.000E+00  0.000E+00  1.07264E+03  1.727E+00  8.909E+00  6.682E-02  1.864E+00
   1    3    7     3     3    1.4684E+00  1.9718E-01   1.2712E+00  0.000E+00  0.000E+00  0.000E+00  1.06987E+03  1.555E+00  8.218E+00  5.547E-02  1.777E+00
   1    4    8     3     4    1.2712E+00  2.2567E-01   1.0456E+00  0.000E+00  0.000E+00  0.000E+00  1.06682E+03  1.364E+00  7.455E+00  6.709E-02  1.682E+00
   1    5    8     3     5    1.0456E+00  1.5790E-01   8.8768E-01  0.000E+00  0.000E+00  0.000E+00  1.06362E+03  1.164E+00  6.655E+00  4.991E-02  1.582E+00
   1    6    8     3     6    8.8768E-01  5.5980E-02   8.3170E-01  0.000E+00  0.000E+00  0.000E+00  1.06158E+03  1.036E+00  6.145E+00  1.844E-02  1.518E+00
   1    5   10     4     1    1.0000E+01  9.0919E-02   9.9091E+00  0.000E+00  0.000E+00  0.000E+00  1.07836E+03  6.368E-01  1.000E+01  2.500E-02  1.212E+00
   1    5    9     4     2    9.9091E+00  1.8158E-01   9.7275E+00  0.000E+00  0.000E+00  0.000E+00  1.07154E+03  6.315E-01  1.000E+01  5.000E-02  1.211E+00
   1    6    8     4     3    9.7275E+00  1.2689E-01   9.6006E+00  0.000E+00  0.000E+00  0.000E+00  1.06381E+03  6.256E-01  1.000E+01  3.500E-02  1.209E+00
   1    6    8     5     1    1.0432E+01  2.2686E-01   1.0205E+01  0.000E+00  0.000E+00  0.000E+00  1.05868E+03  6.790E-01  1.542E+01  6.166E-02  1.226E+00
   1    7    7     5     2    1.0205E+01  2.7894E-01   9.9265E+00  0.000E+00  0.000E+00  0.000E+00  1.05417E+03  6.732E-01  1.519E+01  7.594E-02  1.224E+00
   1    8    7     5     3    9.9265E+00  1.9221E-01   9.7343E+00  0.000E+00  0.000E+00  0.000E+00  1.04992E+03  6.676E-01  1.497E+01  5.241E-02  1.223E+00
   1    8    6     5     4    9.7343E+00  1.3577E-01   9.5985E+00  0.000E+00  0.000E+00  0.000E+00  1.04691E+03  6.637E-01  1.482E+01  3.706E-02  1.221E+00
   1    9    6     6     1    2.4276E+01  2.5176E-01   2.4024E+01  0.000E+00  0.000E+00  0.000E+00  1.04392E+03  1.196E+00  1.200E+01  6.000E-02  1.399E+00
   1   10    7     6     2    2.4024E+01  2.5131E-01   2.3773E+01  0.000E+00  0.000E+00  0.000E+00  1.03937E+03  1.188E+00  1.200E+01  6.000E-02  1.396E+00
   1   11    7     6     3    2.3773E+01  2.5086E-01   2.3522E+01  0.000E+00  0.000E+00  0.000E+00  1.03482E+03  1.181E+00  1.200E+01  6.000E-02  1.394E+00
   1   12    7     6     4    2.3522E+01  2.5041E-01   2.3271E+01  0.000E+00  0.000E+00  0.000E+00  1.03026E+03  1.173E+00  1.200E+01  6.000E-02  1.391E+00
   1   13    7     6     5    2.3271E+01  6.2956E-03   2.3265E+01  0.000E+00  0.000E+00  0.000E+00  1.02708E+03  1.170E+00  1.200E+01  2.400E-02  8.744E-02
   1   14    9     7     1    1.5000E+02  1.3478E+00   1.4865E+02  0.000E+00  0.000E+00  0.000E+00  1.03987E+03  2.288E+00  5.529E+01  5.593E-01  8.033E-01
   1   13    8     7     2    1.4865E+02  1.9032E+00   1.4675E+02  0.000E+00  0.000E+00  0.000E+00  1.03478E+03  2.279E+00  5.526E+01  6.148E-01  1.032E+00
   1   13    7     7     3    1.4675E+02  1.6041E+00   1.4514E+02  0.000E+00  0.000E+00  0.000E+00  1.02969E+03  2.270E+00  5.521E+01  5.584E-01  9.576E-01
   1   13    6     8     1    1.6841E+02  1.0458E+00   1.6736E+02  0.000E+00  0.000E+00  0.000E+00  1.02481E+03  2.938E+00  4.261E+01  4.342E-01  8.029E-01
   1   13    5     8     2    1.6736E+02  2.9163E-01   1.6707E+02  0.000E+00  0.000E+00  0.000E+00  1.01856E+03  2.934E+00  4.254E+01  4.335E-01  2.242E-01
   1   13    4     8     3    1.6707E+02 -2.0499E+00   1.6912E+02  0.000E+00  0.000E+00  0.000E+00  1.01231E+03  2.940E+00  4.263E+01  4.344E+00 -1.573E-01
   1   13    3     8     4    1.6912E+02 -3.4591E+00   1.7258E+02  0.000E+00  0.000E+00  0.000E+00  1.00608E+03  2.958E+00  4.289E+01  4.370E+00 -2.638E-01
   1   13    2     8     5    1.7258E+02 -2.5322E+00   1.7511E+02  0.000E+00  0.000E+00  0.000E+00  9.99852E+02  2.977E+00  4.317E+01  4.399E+00 -1.919E-01
   1   13    1     8     6    1.7511E+02 -1.9719E+00   1.7709E+02  0.000E+00  0.000E+00  0.000E+00  9.94867E+02  2.991E+00  4.338E+01  2.652E+00 -2.478E-01





UNSATURATED ZONE PACKAGE VOLUMETRIC BUDGET FOR  TIME STEP    30 STRESS PERIOD   31
  ------------------------------------------------------------------------------



     CUMULATIVE VOLUMES      L**3       RATES FOR THIS TIME STEP      L**3/T
     ------------------                 ------------------------

           IN:                                      IN:
           ---                                      ---
        INFILTRATION =  1373624722.4241          INFILTRATION =          26.6074

          OUT:                                     OUT:
          ----                                     ----
              UZF ET =  1139135803.2399                UZF ET =          26.6074
        UZF RECHARGE =   148003818.0445          UZF RECHARGE =           0.0008

            IN - OUT =    86485101.1397              IN - OUT =      -8.3420E-04

          STORAGE:                                 STORAGE:
          --------                                 --------
      STORAGE CHANGE =    86486610.0856        STORAGE CHANGE =      -8.3426E-04

 PERCENT DISCREPANCY IS DIFFERENCE BETWEEN IN-OUT MINUS CHANGE IN STORAGE
 DIVIDED BY THE AVERAGE OF IN AND OUT TIMES 100

 PERCENT DISCREPANCY =          -0.00     PERCENT DISCREPANCY =           0.00






1
  VOLUMETRIC BUDGET FOR AGRICULTURAL FIELDS AT TIME STEP   30, STRESS PERIOD  31
  ------------------------------------------------------------------------------

     CUMULATIVE VOLUMES      L**3       RATES FOR THIS TIME STEP      L**3/T
     ------------------                 ------------------------

           IN:                                      IN:
           ---                                      ---
               AG WELLS  =  1025797184.0000                 AG WELLS  =          22.1999
      DIVERSION SEGMENTS =           0.0000        DIVERSION SEGMENTS =           0.0000
           GW IRRIGATION =           0.0000             GW IRRIGATION =           0.0000
           SW IRRIGATION =           0.0000             SW IRRIGATION =           0.0000
        SYSTEM LOSSES GW =           0.0000          SYSTEM LOSSES GW =           0.0000
        SYSTEM LOSSES SW =           0.0000          SYSTEM LOSSES SW =           0.0000

                TOTAL IN =  1025797184.0000                  TOTAL IN =          22.1999

          OUT:                                     OUT:
          ----                                     ----
               AG WELLS  =           0.0000                 AG WELLS  =           0.0000
      DIVERSION SEGMENTS =           0.0000        DIVERSION SEGMENTS =           0.0000
           GW IRRIGATION =  1025797184.0000             GW IRRIGATION =          22.1999
           SW IRRIGATION =           0.0000             SW IRRIGATION =           0.0000
        SYSTEM LOSSES GW =           0.0000          SYSTEM LOSSES GW =           0.0000
        SYSTEM LOSSES SW =           0.0000          SYSTEM LOSSES SW =           0.0000

               TOTAL OUT =  1025797184.0000                 TOTAL OUT =          22.1999

                IN - OUT =           0.0000                  IN - OUT =           0.0000

     PERCENT DISCREPANCY =           0.00         PERCENT DISCREPANCY =           0.00



1
  VOLUMETRIC BUDGET FOR ENTIRE MODEL AT END OF TIME STEP   30, STRESS PERIOD  31
  ------------------------------------------------------------------------------

     CUMULATIVE VOLUMES      L**3       RATES FOR THIS TIME STEP      L**3/T
     ------------------                 ------------------------

           IN:                                      IN:
           ---                                      ---
             STORAGE     =  1329726208.0000               STORAGE     =          20.3631
       CONSTANT HEAD     =           0.0000         CONSTANT HEAD     =           0.0000
     HEAD DEP BOUNDS     =    22560618.0000       HEAD DEP BOUNDS     =           0.2866
      STREAM LEAKAGE     =   971497408.0000        STREAM LEAKAGE     =          11.9275
        UZF RECHARGE     =   148003648.0000          UZF RECHARGE     =       8.3420E-04
               GW ET     =           0.0000                 GW ET     =           0.0000
     SURFACE LEAKAGE     =           0.0000       SURFACE LEAKAGE     =           0.0000
           AG WELLS      =           0.0000             AG WELLS      =           0.0000

                TOTAL IN =  2471787776.0000                  TOTAL IN =          32.5780

          OUT:                                     OUT:
          ----                                     ----
             STORAGE     =   588970112.0000               STORAGE     =       7.5911E-02
       CONSTANT HEAD     =           0.0000         CONSTANT HEAD     =           0.0000
     HEAD DEP BOUNDS     =    23151340.0000       HEAD DEP BOUNDS     =           0.2892
      STREAM LEAKAGE     =   816573248.0000        STREAM LEAKAGE     =          10.0130
        UZF RECHARGE     =           0.0000          UZF RECHARGE     =           0.0000
               GW ET     =    17288296.0000                 GW ET     =           0.0000
     SURFACE LEAKAGE     =           0.0000       SURFACE LEAKAGE     =           0.0000
           AG WELLS      =  1025797184.0000             AG WELLS      =          22.1999

               TOTAL OUT =  2471780352.0000                 TOTAL OUT =          32.5780

                IN - OUT =        7424.0000                  IN - OUT =      -5.7220E-05

     PERCENT DISCREPANCY =           0.00         PERCENT DISCREPANCY =          -0.00






         TIME SUMMARY AT END OF TIME STEP   30 IN STRESS PERIOD   31
                    SECONDS     MINUTES      HOURS       DAYS        YEARS
                    -----------------------------------------------------------
   TIME STEP LENGTH  87667.      1461.1      24.352      1.0147     2.77799E-03
 STRESS PERIOD TIME 2.63000E+06  43833.      730.56      30.440     8.33397E-02
         TOTAL TIME 7.89864E+07 1.31644E+06  21941.      914.20      2.5029    
1
1
                            STRESS PERIOD NO.   32, LENGTH =   2630000.    
                            -----------------------------------------------

                              NUMBER OF TIME STEPS =    30

                               MULTIPLIER FOR DELT =     1.000

                            INITIAL TIME STEP SIZE =   87666.66    

 REUSING NON-PARAMETER GHB CELLS FROM LAST STRESS PERIOD

      2 GHB CELLS

 REUSING STREAM SEGMENT DATA FROM LAST STRESS PERIOD



            AREAL INFILTRATION RATE
 READING ON UNIT   19 WITH FORMAT: (10F4.0)            

            1           2           3           4           5           6           7           8           9          10
 ........................................................................................................................
   1   1.2000E-09   0.000       0.000       0.000       0.000       0.000       0.000       0.000       0.000       0.000    
   2   2.1000E-09  2.0000E-09  8.0000E-10  8.5000E-09   0.000       0.000       0.000       0.000       0.000       0.000    
   3   5.0000E-10  1.1000E-09  8.8000E-09  5.5000E-09   0.000       0.000       0.000       0.000       0.000       0.000    
   4   8.5000E-09  1.1000E-09  1.1000E-09  1.1000E-09  2.0000E-09   0.000       0.000       0.000       0.000       0.000    
   5   8.5000E-09  1.1000E-09  1.1000E-09  1.1000E-09  1.1000E-09   0.000       0.000       0.000       0.000       0.000    
   6   8.5000E-09  5.2000E-09  2.1000E-09  1.1000E-09  1.5000E-09   0.000       0.000       0.000       0.000       0.000    
   7   8.5000E-09  5.2000E-09  2.1000E-09  1.2000E-09  2.0000E-09   0.000       0.000       0.000       0.000       0.000    
   8   5.0000E-10  5.2000E-09  2.1000E-09  1.2000E-09  5.0000E-09   0.000       0.000       0.000       0.000       0.000    
   9   5.0000E-10  5.2000E-09  2.1000E-09  1.2000E-09  5.0000E-09   0.000       0.000       0.000       0.000       0.000    
  10   5.0000E-10  5.2000E-09  2.1000E-09  1.2000E-09  5.8000E-09   0.000       0.000       0.000       0.000       0.000    
  11   1.0000E-10  1.1000E-09  1.1000E-09  1.2000E-09  5.0000E-09   0.000       0.000       0.000       0.000       0.000    
  12   1.1000E-09  1.1000E-09  1.1000E-09  1.1000E-09  2.0000E-09   0.000       0.000       0.000       0.000       0.000    
  13   1.1000E-09  2.2000E-09  2.2000E-09  2.1000E-09  1.0000E-09   0.000       0.000       0.000       0.000       0.000    
  14   2.0000E-10  5.5000E-09  5.5000E-09  5.2000E-09  1.0000E-09   0.000       0.000       0.000       0.000       0.000    
  15    0.000      8.8000E-09  8.8000E-09   0.000       0.000       0.000       0.000       0.000       0.000       0.000    

                  ET RATE =  4.000000E-07

 USING ET EXTINCTION DEPTH FROM PREVIOUS STRESS PERIOD. CURRENT PERIOD IS:      32

 USING EXTINCTION WATER CONTENT FROM PREVIOUS STRESS PERIOD. CURRENT PERIOD IS:      32

 USING AIR ENTRY PRESSURE FROM PREVIOUS STRESS PERIOD. CURRENT PERIOD IS:      32

 USING ROOT PRESSURE HEAD FROM PREVIOUS STRESS PERIOD. CURRENT PERIOD IS:      32

 USING ROOT ACTIVITY FROM PREVIOUS STRESS PERIOD. CURRENT PERIOD IS:      32

 PROCESSING AG STRESS PERIOD DATA

 READING AG STRESS PERIOD DATA

 READING IRRIGATION WELL

 END PROCESSING AG STRESS PERIOD DATA OPTIONS
 
 SOLVING FOR HEAD 
                                                   Max.-Head-Change                         Max.-Flux-Residual
  Residual-Control   Outer-Iter.   Inner-Iter.     Column Row Layer    Maximum-Head-Change  Column Row Layer    Maximum-Flux-Residual          L2-NORM 
          0                 1           2             4    7     1      -0.1627625185E+00       4    7    1        -0.8511054663E+01      0.1984241934E+02
          0                 2           2             6    7     1       0.1238473250E-02       6    7    1         0.6806886440E-01      0.1954507939E+00
          0                 3           2             5    8     1      -0.1231199648E-01       5    8    1        -0.6596931448E+00      0.1592272434E+01
          0                 4           2             4    7     1      -0.9016469726E-02       5    7    1        -0.4996951103E+00      0.1197606571E+01
          0                 5           2             4    7     1      -0.7411817506E-02       5    7    1        -0.4104654116E+00      0.9882674613E+00
          0                 6           2             4    7     1      -0.6114115369E-02       5    7    1        -0.3385973284E+00      0.8146993450E+00
          0                 7           2             4    7     1      -0.5070096297E-02       5    7    1        -0.2807612351E+00      0.6755796620E+00
          0                 8           2             4    7     1      -0.4221086990E-02       5    7    1        -0.2337344405E+00      0.5624090273E+00
          0                 9           2             4    7     1      -0.3525370416E-02       5    7    1        -0.1952014785E+00      0.4696876486E+00
          0                10           2             4    7     1      -0.2951808285E-02       5    7    1        -0.1634389473E+00      0.3932558745E+00
                                                   Max.-Head-Change                         Max.-Flux-Residual
  Residual-Control   Outer-Iter.   Inner-Iter.     Column Row Layer    Maximum-Head-Change  Column Row Layer    Maximum-Flux-Residual          L2-NORM 
          0                11           2             4    7     1      -0.2476692471E-02       5    7    1        -0.1371274142E+00      0.3299448865E+00
          0                12           2             4    7     1      -0.2081563077E-02       5    7    1        -0.1152464288E+00      0.2772963224E+00
          0                13           2             4    7     1      -0.1751894043E-02       5    7    1        -0.9699276125E-01      0.2333737871E+00
          0                14           2             4    7     1      -0.1476160008E-02       5    7    1        -0.8172350685E-01      0.1966360799E+00
          0                15           2             4    7     1      -0.1244998281E-02       5    7    1        -0.6892493553E-01      0.1658407226E+00
          0                16           2             4    7     1      -0.1050872987E-02       5    7    1        -0.5817650173E-01      0.1399795817E+00
          0                17           2             4    7     1      -0.8875934946E-03       5    7    1        -0.4913795466E-01      0.1182287724E+00
          0                18           2             4    7     1      -0.7501051488E-03       5    7    1        -0.4152598393E-01      0.9991376567E-01
          0                19           2             4    7     1      -0.6342240134E-03       5    7    1        -0.3510943009E-01      0.8447683186E-01
          0                20           2             4    7     1      -0.5364570886E-03       5    7    1        -0.2969705084E-01      0.7145376142E-01
                                                   Max.-Head-Change                         Max.-Flux-Residual
  Residual-Control   Outer-Iter.   Inner-Iter.     Column Row Layer    Maximum-Head-Change  Column Row Layer    Maximum-Flux-Residual          L2-NORM 
          0                21           2             4    7     1      -0.4539041250E-03       5    7    1        -0.2512560859E-01      0.6045687023E-01
          0                22           2             4    7     1      -0.3841442351E-03       5    7    1        -0.2126606685E-01      0.5116671937E-01
          0                23           2             4    7     1      -0.3251995901E-03       5    7    1        -0.1800234586E-01      0.4331431517E-01
          0                24           2             4    7     1      -0.2753548376E-03       5    7    1        -0.1524267215E-01      0.3667510742E-01
          0                25           2             4    7     1      -0.2331930347E-03       5    7    1        -0.1290766342E-01      0.3105814864E-01
          0                26           2             4    7     1      -0.1975108129E-03       5    7    1        -0.1093271309E-01      0.2630586674E-01
          0                27           2             4    7     1      -0.1673026780E-03       5    7    1        -0.9261222308E-02      0.2228282523E-01
          0                28           2             4    7     1      -0.1417276663E-03       5    7    1        -0.7844860966E-02      0.1887644956E-01
          0                29           2             4    7     1      -0.1200773875E-03       5    7    1        -0.6646424541E-02      0.1599264686E-01
          0                30           1             4    7     1      -0.1017412412E-03       5    7    1        -0.5632078902E-02      0.1355025574E-01
          0                31           1             4    7     1      -0.8620785315E-04       5    7    1        -0.4771669444E-02      0.1148165011E-01

    ------------------------------------------------
       NWT REQUIRED           31 OUTER ITERATIONS 
       AND A TOTAL OF         60 INNER ITERATIONS.
    ------------------------------------------------

 NO OUTPUT CONTROL FOR STRESS PERIOD   32   TIME STEP    1
 
 SOLVING FOR HEAD 
                                                   Max.-Head-Change                         Max.-Flux-Residual
  Residual-Control   Outer-Iter.   Inner-Iter.     Column Row Layer    Maximum-Head-Change  Column Row Layer    Maximum-Flux-Residual          L2-NORM 
          0                 1           2             4    7     1      -0.1612228564E+00       4    7    1        -0.8435322125E+01      0.1942947664E+02
          0                 2           2             6    7     1       0.1526348408E-02       6    7    1         0.8409623948E-01      0.2312924442E+00
          0                 3           2             5    7     1      -0.1222405100E-01       4    7    1        -0.6480541643E+00      0.1576282037E+01
          0                 4           2             4    7     1      -0.9016441676E-02       4    7    1        -0.4991646604E+00      0.1141952142E+01
          0                 5           2             4    7     1      -0.7411444351E-02       4    7    1        -0.4100521534E+00      0.9495914588E+00
          0                 6           2             4    7     1      -0.6113824281E-02       4    7    1        -0.3382772888E+00      0.7823915296E+00
          0                 7           2             4    7     1      -0.5069871301E-02       4    7    1        -0.2805061937E+00      0.6490781380E+00
          0                 8           2             4    7     1      -0.4220900123E-02       4    7    1        -0.2335298685E+00      0.5404769860E+00
          0                 9           2             4    7     1      -0.3525214298E-02       4    7    1        -0.1950360981E+00      0.4514651021E+00
          0                10           2             4    7     1      -0.2951693078E-02       4    7    1        -0.1633027635E+00      0.3780613133E+00
                                                   Max.-Head-Change                         Max.-Flux-Residual
  Residual-Control   Outer-Iter.   Inner-Iter.     Column Row Layer    Maximum-Head-Change  Column Row Layer    Maximum-Flux-Residual          L2-NORM 
          0                11           2             4    7     1      -0.2476596493E-02       4    7    1        -0.1370158981E+00      0.3172407283E+00
          0                12           2             4    7     1      -0.2081466588E-02       4    7    1        -0.1151539516E+00      0.2666482978E+00
          0                13           2             4    7     1      -0.1751827929E-02       4    7    1        -0.9691590595E-01      0.2244338316E+00
          0                14           2             4    7     1      -0.1476087466E-02       4    7    1        -0.8166013028E-01      0.1891178906E+00
          0                15           2             4    7     1      -0.1244952345E-02       4    7    1        -0.6887240905E-01      0.1595118865E+00
          0                16           2             4    7     1      -0.1050833860E-02       4    7    1        -0.5813281822E-01      0.1346450261E+00
          0                17           2             4    7     1      -0.8875602038E-03       4    7    1        -0.4909983769E-01      0.1137279719E+00
          0                18           2             4    7     1      -0.7500770613E-03       4    7    1        -0.4149379222E-01      0.9611403693E-01
          0                19           2             4    7     1      -0.6342005604E-03       4    7    1        -0.3508318015E-01      0.8126761294E-01
          0                20           2             4    7     1      -0.5364372358E-03       4    7    1        -0.2967470730E-01      0.6874129232E-01
                                                   Max.-Head-Change                         Max.-Flux-Residual
  Residual-Control   Outer-Iter.   Inner-Iter.     Column Row Layer    Maximum-Head-Change  Column Row Layer    Maximum-Flux-Residual          L2-NORM 
          0                21           2             4    7     1      -0.4538876786E-03       4    7    1        -0.2510794695E-01      0.5816388987E-01
          0                22           2             4    7     1      -0.3841299781E-03       4    7    1        -0.2124886889E-01      0.4922669708E-01
          0                23           2             4    7     1      -0.3251874007E-03       4    7    1        -0.1798818132E-01      0.4167232658E-01
          0                24           2             4    7     1      -0.2753445880E-03       4    7    1        -0.1523089511E-01      0.3528548445E-01
          0                25           2             4    7     1      -0.2331846312E-03       4    7    1        -0.1289864923E-01      0.2988291414E-01
          0                26           2             4    7     1      -0.1975036280E-03       4    7    1        -0.1092483494E-01      0.2531047370E-01
          0                27           2             4    7     1      -0.1672963989E-03       4    7    1        -0.9253838854E-02      0.2143943209E-01
          0                28           2             4    7     1      -0.1417224928E-03       4    7    1        -0.7839161993E-02      0.1816215063E-01
          0                29           2             4    7     1      -0.1200730049E-03       4    7    1        -0.6641584709E-02      0.1538779449E-01
          0                30           1             4    7     1      -0.1017373629E-03       4    7    1        -0.5627329771E-02      0.1303804565E-01
          0                31           1             4    7     1      -0.8620468691E-04       4    7    1        -0.4768133003E-02      0.1104748445E-01

    ------------------------------------------------
       NWT REQUIRED           31 OUTER ITERATIONS 
       AND A TOTAL OF         60 INNER ITERATIONS.
    ------------------------------------------------

 NO OUTPUT CONTROL FOR STRESS PERIOD   32   TIME STEP    2
 
 SOLVING FOR HEAD 
                                                   Max.-Head-Change                         Max.-Flux-Residual
  Residual-Control   Outer-Iter.   Inner-Iter.     Column Row Layer    Maximum-Head-Change  Column Row Layer    Maximum-Flux-Residual          L2-NORM 
          0                 1           2             4    7     1      -0.1596006699E+00       4    7    1        -0.8355098012E+01      0.1896069671E+02
          0                 2           2             6    7     1       0.1800184461E-02       6    7    1         0.9941476939E-01      0.2872120738E+00
          0                 3           2             5    7     1      -0.1218995267E-01       4    7    1        -0.6475187749E+00      0.1571146117E+01
          0                 4           2             4    7     1      -0.9016906797E-02       4    7    1        -0.4991805649E+00      0.1142446048E+01
          0                 5           2             4    7     1      -0.7411447248E-02       4    7    1        -0.4100514413E+00      0.9495426682E+00
          0                 6           2             4    7     1      -0.6113842249E-02       4    7    1        -0.3382767829E+00      0.7823963723E+00
          0                 7           2             4    7     1      -0.5069885560E-02       4    7    1        -0.2805058216E+00      0.6490776504E+00
          0                 8           2             4    7     1      -0.4220912020E-02       4    7    1        -0.2335295531E+00      0.5404770310E+00
          0                 9           2             4    7     1      -0.3525224234E-02       4    7    1        -0.1950358362E+00      0.4514650945E+00
          0                10           2             4    7     1      -0.2951701398E-02       4    7    1        -0.1633025447E+00      0.3780613115E+00
                                                   Max.-Head-Change                         Max.-Flux-Residual
  Residual-Control   Outer-Iter.   Inner-Iter.     Column Row Layer    Maximum-Head-Change  Column Row Layer    Maximum-Flux-Residual          L2-NORM 
          0                11           2             4    7     1      -0.2476603474E-02       4    7    1        -0.1370157149E+00      0.3172407264E+00
          0                12           2             4    7     1      -0.2081472454E-02       4    7    1        -0.1151537979E+00      0.2666482963E+00
          0                13           2             4    7     1      -0.1751832867E-02       4    7    1        -0.9691577673E-01      0.2244338303E+00
          0                14           2             4    7     1      -0.1476091626E-02       4    7    1        -0.8166002151E-01      0.1891178895E+00
          0                15           2             4    7     1      -0.1244955854E-02       4    7    1        -0.6887231743E-01      0.1595118856E+00
          0                16           2             4    7     1      -0.1050836822E-02       4    7    1        -0.5813274097E-01      0.1346450253E+00
          0                17           2             4    7     1      -0.8875627056E-03       4    7    1        -0.4909977249E-01      0.1137279713E+00
          0                18           2             4    7     1      -0.7500791752E-03       4    7    1        -0.4149373714E-01      0.9611403634E-01
          0                19           2             4    7     1      -0.6342023484E-03       4    7    1        -0.3508313362E-01      0.8126761249E-01
          0                20           2             4    7     1      -0.5364387474E-03       4    7    1        -0.2967466793E-01      0.6874129191E-01
                                                   Max.-Head-Change                         Max.-Flux-Residual
  Residual-Control   Outer-Iter.   Inner-Iter.     Column Row Layer    Maximum-Head-Change  Column Row Layer    Maximum-Flux-Residual          L2-NORM 
          0                21           2             4    7     1      -0.4538889577E-03       4    7    1        -0.2510791367E-01      0.5816388953E-01
          0                22           2             4    7     1      -0.3841310607E-03       4    7    1        -0.2124884074E-01      0.4922669679E-01
          0                23           2             4    7     1      -0.3251883174E-03       4    7    1        -0.1798815750E-01      0.4167232635E-01
          0                24           2             4    7     1      -0.2753453635E-03       4    7    1        -0.1523087493E-01      0.3528548421E-01
          0                25           2             4    7     1      -0.2331852882E-03       4    7    1        -0.1289863216E-01      0.2988291399E-01
          0                26           2             4    7     1      -0.1975041849E-03       4    7    1        -0.1092482051E-01      0.2531047341E-01
          0                27           2             4    7     1      -0.1672968708E-03       4    7    1        -0.9253826624E-02      0.2143943199E-01
          0                28           2             4    7     1      -0.1417228921E-03       4    7    1        -0.7839151610E-02      0.1816215039E-01
          0                29           2             4    7     1      -0.1200733432E-03       4    7    1        -0.6641575923E-02      0.1538779422E-01
          0                30           1             4    7     1      -0.1017376496E-03       4    7    1        -0.5627322339E-02      0.1303804542E-01
          0                31           1             4    7     1      -0.8620493004E-04       4    7    1        -0.4768126710E-02      0.1104748420E-01

    ------------------------------------------------
       NWT REQUIRED           31 OUTER ITERATIONS 
       AND A TOTAL OF         60 INNER ITERATIONS.
    ------------------------------------------------

 NO OUTPUT CONTROL FOR STRESS PERIOD   32   TIME STEP    3
 
 SOLVING FOR HEAD 
                                                   Max.-Head-Change                         Max.-Flux-Residual
  Residual-Control   Outer-Iter.   Inner-Iter.     Column Row Layer    Maximum-Head-Change  Column Row Layer    Maximum-Flux-Residual          L2-NORM 
          0                 1           2             4    7     1      -0.1579079034E+00       4    7    1        -0.8270813021E+01      0.1851932702E+02
          0                 2           2             5    8     1      -0.2142035771E-02       5    8    1        -0.1200547355E+00      0.3448330900E+00
          0                 3           2             5    7     1      -0.1215635298E-01       4    7    1        -0.6469543140E+00      0.1566199240E+01
          0                 4           2             4    7     1      -0.9017392681E-02       4    7    1        -0.4991978040E+00      0.1142921479E+01
          0                 5           2             4    7     1      -0.7411450716E-02       4    7    1        -0.4100506726E+00      0.9494957616E+00
          0                 6           2             4    7     1      -0.6113861364E-02       4    7    1        -0.3382762898E+00      0.7824010282E+00
          0                 7           2             4    7     1      -0.5069900743E-02       4    7    1        -0.2805054564E+00      0.6490771834E+00
          0                 8           2             4    7     1      -0.4220924688E-02       4    7    1        -0.2335292437E+00      0.5404770756E+00
          0                 9           2             4    7     1      -0.3525234812E-02       4    7    1        -0.1950355793E+00      0.4514650884E+00
          0                10           2             4    7     1      -0.2951710255E-02       4    7    1        -0.1633023300E+00      0.3780613107E+00
                                                   Max.-Head-Change                         Max.-Flux-Residual
  Residual-Control   Outer-Iter.   Inner-Iter.     Column Row Layer    Maximum-Head-Change  Column Row Layer    Maximum-Flux-Residual          L2-NORM 
          0                11           2             4    7     1      -0.2476610905E-02       4    7    1        -0.1370155351E+00      0.3172407253E+00
          0                12           2             4    7     1      -0.2081478700E-02       4    7    1        -0.1151536470E+00      0.2666482954E+00
          0                13           2             4    7     1      -0.1751838124E-02       4    7    1        -0.9691564998E-01      0.2244338295E+00
          0                14           2             4    7     1      -0.1476096055E-02       4    7    1        -0.8165991483E-01      0.1891178889E+00
          0                15           2             4    7     1      -0.1244959590E-02       4    7    1        -0.6887222755E-01      0.1595118851E+00
          0                16           2             4    7     1      -0.1050839975E-02       4    7    1        -0.5813266515E-01      0.1346450248E+00
          0                17           2             4    7     1      -0.8875653691E-03       4    7    1        -0.4909970851E-01      0.1137279709E+00
          0                18           2             4    7     1      -0.7500814261E-03       4    7    1        -0.4149368310E-01      0.9611403605E-01
          0                19           2             4    7     1      -0.6342042514E-03       4    7    1        -0.3508308796E-01      0.8126761224E-01
          0                20           2             4    7     1      -0.5364403574E-03       4    7    1        -0.2967462934E-01      0.6874129172E-01
                                                   Max.-Head-Change                         Max.-Flux-Residual
  Residual-Control   Outer-Iter.   Inner-Iter.     Column Row Layer    Maximum-Head-Change  Column Row Layer    Maximum-Flux-Residual          L2-NORM 
          0                21           2             4    7     1      -0.4538903200E-03       4    7    1        -0.2510788102E-01      0.5816388936E-01
          0                22           2             4    7     1      -0.3841322130E-03       4    7    1        -0.2124881311E-01      0.4922669666E-01
          0                23           2             4    7     1      -0.3251892933E-03       4    7    1        -0.1798813413E-01      0.4167232623E-01
          0                24           2             4    7     1      -0.2753461902E-03       4    7    1        -0.1523085517E-01      0.3528548410E-01
          0                25           2             4    7     1      -0.2331859879E-03       4    7    1        -0.1289861541E-01      0.2988291387E-01
          0                26           2             4    7     1      -0.1975047771E-03       4    7    1        -0.1092480632E-01      0.2531047336E-01
          0                27           2             4    7     1      -0.1672973728E-03       4    7    1        -0.9253814627E-02      0.2143943195E-01
          0                28           2             4    7     1      -0.1417233176E-03       4    7    1        -0.7839141457E-02      0.1816215034E-01
          0                29           2             4    7     1      -0.1200737033E-03       4    7    1        -0.6641567309E-02      0.1538779420E-01
          0                30           1             4    7     1      -0.1017379552E-03       4    7    1        -0.5627315062E-02      0.1303804538E-01
          0                31           1             4    7     1      -0.8620518879E-04       4    7    1        -0.4768120527E-02      0.1104748431E-01

    ------------------------------------------------
       NWT REQUIRED           31 OUTER ITERATIONS 
       AND A TOTAL OF         60 INNER ITERATIONS.
    ------------------------------------------------

 NO OUTPUT CONTROL FOR STRESS PERIOD   32   TIME STEP    4
 
 SOLVING FOR HEAD 
                                                   Max.-Head-Change                         Max.-Flux-Residual
  Residual-Control   Outer-Iter.   Inner-Iter.     Column Row Layer    Maximum-Head-Change  Column Row Layer    Maximum-Flux-Residual          L2-NORM 
          0                 1           2             4    7     1      -0.1561517288E+00       4    7    1        -0.8182862128E+01      0.1810335798E+02
          0                 2           2             5    8     1      -0.2665502070E-02       5    8    1        -0.1488157004E+00      0.4020444226E+00
          0                 3           2             5    7     1      -0.1212328195E-01       4    7    1        -0.6463635548E+00      0.1561431179E+01
          0                 4           2             4    7     1      -0.9017897254E-02       4    7    1        -0.4992162617E+00      0.1143379360E+01
          0                 5           2             4    7     1      -0.7411454725E-02       4    7    1        -0.4100498518E+00      0.9494506419E+00
          0                 6           2             4    7     1      -0.6113881534E-02       4    7    1        -0.3382758090E+00      0.7824055070E+00
          0                 7           2             4    7     1      -0.5069916775E-02       4    7    1        -0.2805050979E+00      0.6490767360E+00
          0                 8           2             4    7     1      -0.4220938065E-02       4    7    1        -0.2335289401E+00      0.5404771196E+00
          0                 9           2             4    7     1      -0.3525245982E-02       4    7    1        -0.1950353271E+00      0.4514650834E+00
          0                10           2             4    7     1      -0.2951719608E-02       4    7    1        -0.1633021193E+00      0.3780613108E+00
                                                   Max.-Head-Change                         Max.-Flux-Residual
  Residual-Control   Outer-Iter.   Inner-Iter.     Column Row Layer    Maximum-Head-Change  Column Row Layer    Maximum-Flux-Residual          L2-NORM 
          0                11           2             4    7     1      -0.2476618753E-02       4    7    1        -0.1370153587E+00      0.3172407249E+00
          0                12           2             4    7     1      -0.2081485296E-02       4    7    1        -0.1151534990E+00      0.2666482952E+00
          0                13           2             4    7     1      -0.1751843675E-02       4    7    1        -0.9691552555E-01      0.2244338293E+00
          0                14           2             4    7     1      -0.1476100733E-02       4    7    1        -0.8165981013E-01      0.1891178887E+00
          0                15           2             4    7     1      -0.1244963535E-02       4    7    1        -0.6887213932E-01      0.1595118850E+00
          0                16           2             4    7     1      -0.1050843305E-02       4    7    1        -0.5813259075E-01      0.1346450247E+00
          0                17           2             4    7     1      -0.8875681817E-03       4    7    1        -0.4909964572E-01      0.1137279708E+00
          0                18           2             4    7     1      -0.7500838027E-03       4    7    1        -0.4149363006E-01      0.9611403597E-01
          0                19           2             4    7     1      -0.6342062610E-03       4    7    1        -0.3508304315E-01      0.8126761218E-01
          0                20           2             4    7     1      -0.5364420571E-03       4    7    1        -0.2967459146E-01      0.6874129164E-01
                                                   Max.-Head-Change                         Max.-Flux-Residual
  Residual-Control   Outer-Iter.   Inner-Iter.     Column Row Layer    Maximum-Head-Change  Column Row Layer    Maximum-Flux-Residual          L2-NORM 
          0                21           2             4    7     1      -0.4538917583E-03       4    7    1        -0.2510784899E-01      0.5816388931E-01
          0                22           2             4    7     1      -0.3841334299E-03       4    7    1        -0.2124878601E-01      0.4922669661E-01
          0                23           2             4    7     1      -0.3251903237E-03       4    7    1        -0.1798811120E-01      0.4167232620E-01
          0                24           2             4    7     1      -0.2753470627E-03       4    7    1        -0.1523083575E-01      0.3528548407E-01
          0                25           2             4    7     1      -0.2331867266E-03       4    7    1        -0.1289859897E-01      0.2988291386E-01
          0                26           2             4    7     1      -0.1975054034E-03       4    7    1        -0.1092479241E-01      0.2531047331E-01
          0                27           2             4    7     1      -0.1672979026E-03       4    7    1        -0.9253802824E-02      0.2143943188E-01
          0                28           2             4    7     1      -0.1417237664E-03       4    7    1        -0.7839131475E-02      0.1816215032E-01
          0                29           2             4    7     1      -0.1200740843E-03       4    7    1        -0.6641558872E-02      0.1538779418E-01
          0                30           1             4    7     1      -0.1017382772E-03       4    7    1        -0.5627307877E-02      0.1303804532E-01
          0                31           1             4    7     1      -0.8620546187E-04       4    7    1        -0.4768114464E-02      0.1104748414E-01

    ------------------------------------------------
       NWT REQUIRED           31 OUTER ITERATIONS 
       AND A TOTAL OF         60 INNER ITERATIONS.
    ------------------------------------------------

 NO OUTPUT CONTROL FOR STRESS PERIOD   32   TIME STEP    5
 
 SOLVING FOR HEAD 
                                                   Max.-Head-Change                         Max.-Flux-Residual
  Residual-Control   Outer-Iter.   Inner-Iter.     Column Row Layer    Maximum-Head-Change  Column Row Layer    Maximum-Flux-Residual          L2-NORM 
          0                 1           2             4    7     1      -0.1543387513E+00       4    7    1        -0.8091609851E+01      0.1771096068E+02
          0                 2           2             5    8     1      -0.3161031955E-02       5    8    1        -0.1760168021E+00      0.4579461220E+00
          0                 3           2             5    7     1      -0.1209076622E-01       4    7    1        -0.6457490591E+00      0.1556832538E+01
          0                 4           2             4    7     1      -0.9018418604E-02       4    7    1        -0.4992358307E+00      0.1143820554E+01
          0                 5           2             4    7     1      -0.7411459248E-02       4    7    1        -0.4100489832E+00      0.9494072192E+00
          0                 6           2             4    7     1      -0.6113902674E-02       4    7    1        -0.3382753399E+00      0.7824098174E+00
          0                 7           2             4    7     1      -0.5069933589E-02       4    7    1        -0.2805047458E+00      0.6490763071E+00
          0                 8           2             4    7     1      -0.4220952092E-02       4    7    1        -0.2335286421E+00      0.5404771632E+00
          0                 9           2             4    7     1      -0.3525257697E-02       4    7    1        -0.1950350797E+00      0.4514650798E+00
          0                10           2             4    7     1      -0.2951729417E-02       4    7    1        -0.1633019125E+00      0.3780613118E+00
                                                   Max.-Head-Change                         Max.-Flux-Residual
  Residual-Control   Outer-Iter.   Inner-Iter.     Column Row Layer    Maximum-Head-Change  Column Row Layer    Maximum-Flux-Residual          L2-NORM 
          0                11           2             4    7     1      -0.2476626983E-02       4    7    1        -0.1370151856E+00      0.3172407253E+00
          0                12           2             4    7     1      -0.2081492213E-02       4    7    1        -0.1151533537E+00      0.2666482956E+00
          0                13           2             4    7     1      -0.1751849496E-02       4    7    1        -0.9691540344E-01      0.2244338297E+00
          0                14           2             4    7     1      -0.1476105638E-02       4    7    1        -0.8165970735E-01      0.1891178890E+00
          0                15           2             4    7     1      -0.1244967672E-02       4    7    1        -0.6887205273E-01      0.1595118852E+00
          0                16           2             4    7     1      -0.1050846797E-02       4    7    1        -0.5813251773E-01      0.1346450249E+00
          0                17           2             4    7     1      -0.8875711311E-03       4    7    1        -0.4909958409E-01      0.1137279710E+00
          0                18           2             4    7     1      -0.7500862954E-03       4    7    1        -0.4149357802E-01      0.9611403616E-01
          0                19           2             4    7     1      -0.6342083684E-03       4    7    1        -0.3508299917E-01      0.8126761233E-01
          0                20           2             4    7     1      -0.5364438400E-03       4    7    1        -0.2967455428E-01      0.6874129174E-01
                                                   Max.-Head-Change                         Max.-Flux-Residual
  Residual-Control   Outer-Iter.   Inner-Iter.     Column Row Layer    Maximum-Head-Change  Column Row Layer    Maximum-Flux-Residual          L2-NORM 
          0                21           2             4    7     1      -0.4538932661E-03       4    7    1        -0.2510781753E-01      0.5816388940E-01
          0                22           2             4    7     1      -0.3841347066E-03       4    7    1        -0.2124875942E-01      0.4922669678E-01
          0                23           2             4    7     1      -0.3251914042E-03       4    7    1        -0.1798808868E-01      0.4167232629E-01
          0                24           2             4    7     1      -0.2753479774E-03       4    7    1        -0.1523081670E-01      0.3528548412E-01
          0                25           2             4    7     1      -0.2331875018E-03       4    7    1        -0.1289858286E-01      0.2988291392E-01
          0                26           2             4    7     1      -0.1975060595E-03       4    7    1        -0.1092477876E-01      0.2531047352E-01
          0                27           2             4    7     1      -0.1672984588E-03       4    7    1        -0.9253791272E-02      0.2143943199E-01
          0                28           2             4    7     1      -0.1417242377E-03       4    7    1        -0.7839121681E-02      0.1816215038E-01
          0                29           2             4    7     1      -0.1200744829E-03       4    7    1        -0.6641550550E-02      0.1538779420E-01
          0                30           1             4    7     1      -0.1017386153E-03       4    7    1        -0.5627300845E-02      0.1303804539E-01
          0                31           1             4    7     1      -0.8620574808E-04       4    7    1        -0.4768108505E-02      0.1104748450E-01

    ------------------------------------------------
       NWT REQUIRED           31 OUTER ITERATIONS 
       AND A TOTAL OF         60 INNER ITERATIONS.
    ------------------------------------------------

 NO OUTPUT CONTROL FOR STRESS PERIOD   32   TIME STEP    6
 
 SOLVING FOR HEAD 
                                                   Max.-Head-Change                         Max.-Flux-Residual
  Residual-Control   Outer-Iter.   Inner-Iter.     Column Row Layer    Maximum-Head-Change  Column Row Layer    Maximum-Flux-Residual          L2-NORM 
          0                 1           2             4    7     1      -0.1524755689E+00       4    7    1        -0.7997420535E+01      0.1734046318E+02
          0                 2           2             5    8     1      -0.3630558701E-02       5    8    1        -0.2017669979E+00      0.5121501056E+00
          0                 3           2             4    7     1      -0.1234416383E-01       4    7    1        -0.6448337551E+00      0.1552283353E+01
          0                 4           2             4    7     1      -0.8801609907E-02       5    8    1        -0.4613842652E+00      0.1128159627E+01
          0                 5           2             4    7     1      -0.7341869872E-02       4    7    1        -0.3832979070E+00      0.9385982673E+00
          0                 6           2             4    7     1      -0.6047176948E-02       5    6    1        -0.3157129063E+00      0.7733246376E+00
          0                 7           2             4    7     1      -0.5017331684E-02       4    7    1        -0.2619376161E+00      0.6416013698E+00
          0                 8           2             4    7     1      -0.4178016821E-02       4    7    1        -0.2181198254E+00      0.5342747703E+00
          0                 9           2             4    7     1      -0.3490064300E-02       4    7    1        -0.1822041966E+00      0.4463008038E+00
          0                10           2             4    7     1      -0.2922701400E-02       4    7    1        -0.1525841341E+00      0.3737478615E+00
                                                   Max.-Head-Change                         Max.-Flux-Residual
  Residual-Control   Outer-Iter.   Inner-Iter.     Column Row Layer    Maximum-Head-Change  Column Row Layer    Maximum-Flux-Residual          L2-NORM 
          0                11           2             4    7     1      -0.2452572658E-02       4    7    1        -0.1280403341E+00      0.3136289521E+00
          0                12           2             4    7     1      -0.2061481728E-02       4    7    1        -0.1076227998E+00      0.2636179195E+00
          0                13           2             4    7     1      -0.1735153230E-02       4    7    1        -0.9058634589E-01      0.2218870505E+00
          0                14           2             4    7     1      -0.1462137822E-02       4    7    1        -0.7633315222E-01      0.1869745909E+00
          0                15           2             4    7     1      -0.1233258911E-02       4    7    1        -0.6438417615E-01      0.1577061116E+00
          0                16           2             4    7     1      -0.1041012941E-02       4    7    1        -0.5434767918E-01      0.1331221710E+00
          0                17           2             4    7     1      -0.8793000370E-03       4    7    1        -0.4590520819E-01      0.1124427230E+00
          0                18           2             4    7     1      -0.7431221305E-03       4    7    1        -0.3879583119E-01      0.9502862813E-01
          0                19           2             4    7     1      -0.6283391391E-03       4    7    1        -0.3280340873E-01      0.8035046188E-01
          0                20           2             4    7     1      -0.5314924061E-03       4    7    1        -0.2774737628E-01      0.6796594008E-01
                                                   Max.-Head-Change                         Max.-Flux-Residual
  Residual-Control   Outer-Iter.   Inner-Iter.     Column Row Layer    Maximum-Head-Change  Column Row Layer    Maximum-Flux-Residual          L2-NORM 
          0                21           2             4    7     1      -0.4497127556E-03       4    7    1        -0.2347794406E-01      0.5750815976E-01
          0                22           2             4    7     1      -0.3806023451E-03       5    7    1        -0.1987062490E-01      0.4867198002E-01
          0                23           2             4    7     1      -0.3222072891E-03       4    7    1        -0.1682132828E-01      0.4120292585E-01
          0                24           2             4    7     1      -0.2728247732E-03       4    7    1        -0.1424323523E-01      0.3488817615E-01
          0                25           2             4    7     1      -0.2310535611E-03       4    7    1        -0.1206250534E-01      0.2954655982E-01
          0                26           2             4    7     1      -0.1957002634E-03       4    7    1        -0.1021683220E-01      0.2502566827E-01
          0                27           2             4    7     1      -0.1657699156E-03       4    7    1        -0.8654272506E-02      0.2119824883E-01
          0                28           2             4    7     1      -0.1404303814E-03       4    7    1        -0.7331383262E-02      0.1795789160E-01
          0                29           2             4    7     1      -0.1189793804E-03       4    7    1        -0.6211500889E-02      0.1521479048E-01
          0                30           1             4    7     1      -0.1008112537E-03       4    7    1        -0.5263005922E-02      0.1289149737E-01
          0                31           1             4    7     1      -0.8542027619E-04       4    7    1        -0.4459496430E-02      0.1092333644E-01

    ------------------------------------------------
       NWT REQUIRED           31 OUTER ITERATIONS 
       AND A TOTAL OF         60 INNER ITERATIONS.
    ------------------------------------------------

 NO OUTPUT CONTROL FOR STRESS PERIOD   32   TIME STEP    7
 
 SOLVING FOR HEAD 
                                                   Max.-Head-Change                         Max.-Flux-Residual
  Residual-Control   Outer-Iter.   Inner-Iter.     Column Row Layer    Maximum-Head-Change  Column Row Layer    Maximum-Flux-Residual          L2-NORM 
          0                 1           2             4    7     1      -0.1505677264E+00       4    7    1        -0.7900601332E+01      0.1699032828E+02
          0                 2           2             5    8     1      -0.4075847018E-02       5    8    1        -0.2261657454E+00      0.5645034055E+00
          0                 3           2             4    7     1      -0.1232512315E-01       4    7    1        -0.6438666758E+00      0.1547873179E+01
          0                 4           2             4    7     1      -0.8803550047E-02       5    8    1        -0.4616260125E+00      0.1128604112E+01
          0                 5           2             4    7     1      -0.7341705397E-02       4    7    1        -0.3832882587E+00      0.9385539173E+00
          0                 6           2             4    7     1      -0.6047217760E-02       5    6    1        -0.3157152489E+00      0.7733290659E+00
          0                 7           2             4    7     1      -0.5017347802E-02       4    7    1        -0.2619375194E+00      0.6416009239E+00
          0                 8           2             4    7     1      -0.4178032023E-02       4    7    1        -0.2181198348E+00      0.5342748123E+00
          0                 9           2             4    7     1      -0.3490076821E-02       4    7    1        -0.1822041955E+00      0.4463007975E+00
          0                10           2             4    7     1      -0.2922711902E-02       4    7    1        -0.1525841340E+00      0.3737478603E+00
                                                   Max.-Head-Change                         Max.-Flux-Residual
  Residual-Control   Outer-Iter.   Inner-Iter.     Column Row Layer    Maximum-Head-Change  Column Row Layer    Maximum-Flux-Residual          L2-NORM 
          0                11           2             4    7     1      -0.2452581469E-02       4    7    1        -0.1280403340E+00      0.3136289507E+00
          0                12           2             4    7     1      -0.2061489134E-02       4    7    1        -0.1076227997E+00      0.2636179184E+00
          0                13           2             4    7     1      -0.1735159464E-02       4    7    1        -0.9058634580E-01      0.2218870496E+00
          0                14           2             4    7     1      -0.1462143075E-02       4    7    1        -0.7633315216E-01      0.1869745899E+00
          0                15           2             4    7     1      -0.1233263342E-02       4    7    1        -0.6438417609E-01      0.1577061107E+00
          0                16           2             4    7     1      -0.1041016681E-02       4    7    1        -0.5434767912E-01      0.1331221704E+00
          0                17           2             4    7     1      -0.8793031961E-03       4    7    1        -0.4590520815E-01      0.1124427225E+00
          0                18           2             4    7     1      -0.7431248004E-03       4    7    1        -0.3879583115E-01      0.9502862741E-01
          0                19           2             4    7     1      -0.6283413964E-03       4    7    1        -0.3280340869E-01      0.8035046131E-01
          0                20           2             4    7     1      -0.5314943158E-03       4    7    1        -0.2774737626E-01      0.6796593976E-01
                                                   Max.-Head-Change                         Max.-Flux-Residual
  Residual-Control   Outer-Iter.   Inner-Iter.     Column Row Layer    Maximum-Head-Change  Column Row Layer    Maximum-Flux-Residual          L2-NORM 
          0                21           2             4    7     1      -0.4497143711E-03       4    7    1        -0.2347794403E-01      0.5750815953E-01
          0                22           2             4    7     1      -0.3806037127E-03       5    7    1        -0.1987062483E-01      0.4867197982E-01
          0                23           2             4    7     1      -0.3222084464E-03       4    7    1        -0.1682132825E-01      0.4120292568E-01
          0                24           2             4    7     1      -0.2728257535E-03       4    7    1        -0.1424323522E-01      0.3488817514E-01
          0                25           2             4    7     1      -0.2310543911E-03       4    7    1        -0.1206250532E-01      0.2954655906E-01
          0                26           2             4    7     1      -0.1957009666E-03       4    7    1        -0.1021683219E-01      0.2502566812E-01
          0                27           2             4    7     1      -0.1657705113E-03       4    7    1        -0.8654272497E-02      0.2119824878E-01
          0                28           2             4    7     1      -0.1404308856E-03       4    7    1        -0.7331383255E-02      0.1795789153E-01
          0                29           2             4    7     1      -0.1189798083E-03       4    7    1        -0.6211500903E-02      0.1521479042E-01
          0                30           1             4    7     1      -0.1008116158E-03       4    7    1        -0.5263005909E-02      0.1289149494E-01
          0                31           1             4    7     1      -0.8542058295E-04       4    7    1        -0.4459496415E-02      0.1092333494E-01

    ------------------------------------------------
       NWT REQUIRED           31 OUTER ITERATIONS 
       AND A TOTAL OF         60 INNER ITERATIONS.
    ------------------------------------------------

 NO OUTPUT CONTROL FOR STRESS PERIOD   32   TIME STEP    8
 
 SOLVING FOR HEAD 
                                                   Max.-Head-Change                         Max.-Flux-Residual
  Residual-Control   Outer-Iter.   Inner-Iter.     Column Row Layer    Maximum-Head-Change  Column Row Layer    Maximum-Flux-Residual          L2-NORM 
          0                 1           2             4    7     1      -0.1486211534E+00       4    7    1        -0.7801480327E+01      0.1665915686E+02
          0                 2           2             5    8     1      -0.4498536797E-02       5    8    1        -0.2493053270E+00      0.6149663683E+00
          0                 3           2             4    7     1      -0.1230569665E-01       4    7    1        -0.6428765669E+00      0.1543604927E+01
          0                 4           2             4    7     1      -0.8805529939E-02       5    8    1        -0.4618553216E+00      0.1129034557E+01
          0                 5           2             4    7     1      -0.7341537907E-02       4    7    1        -0.3832783797E+00      0.9385109669E+00
          0                 6           2             4    7     1      -0.6047259665E-02       5    6    1        -0.3157174792E+00      0.7733333547E+00
          0                 7           2             4    7     1      -0.5017364467E-02       4    7    1        -0.2619374204E+00      0.6416004922E+00
          0                 8           2             4    7     1      -0.4178047716E-02       4    7    1        -0.2181198445E+00      0.5342748531E+00
          0                 9           2             4    7     1      -0.3490089748E-02       4    7    1        -0.1822041944E+00      0.4463007914E+00
          0                10           2             4    7     1      -0.2922722746E-02       4    7    1        -0.1525841340E+00      0.3737478593E+00
                                                   Max.-Head-Change                         Max.-Flux-Residual
  Residual-Control   Outer-Iter.   Inner-Iter.     Column Row Layer    Maximum-Head-Change  Column Row Layer    Maximum-Flux-Residual          L2-NORM 
          0                11           2             4    7     1      -0.2452590567E-02       4    7    1        -0.1280403339E+00      0.3136289494E+00
          0                12           2             4    7     1      -0.2061496782E-02       4    7    1        -0.1076227996E+00      0.2636179173E+00
          0                13           2             4    7     1      -0.1735165901E-02       4    7    1        -0.9058634572E-01      0.2218870487E+00
          0                14           2             4    7     1      -0.1462148499E-02       4    7    1        -0.7633315208E-01      0.1869745892E+00
          0                15           2             4    7     1      -0.1233267917E-02       4    7    1        -0.6438417603E-01      0.1577061101E+00
          0                16           2             4    7     1      -0.1041020543E-02       4    7    1        -0.5434767907E-01      0.1331221698E+00
          0                17           2             4    7     1      -0.8793064577E-03       4    7    1        -0.4590520809E-01      0.1124427220E+00
          0                18           2             4    7     1      -0.7431275570E-03       4    7    1        -0.3879583111E-01      0.9502862704E-01
          0                19           2             4    7     1      -0.6283437275E-03       4    7    1        -0.3280340866E-01      0.8035046099E-01
          0                20           2             4    7     1      -0.5314962873E-03       4    7    1        -0.2774737623E-01      0.6796593950E-01
                                                   Max.-Head-Change                         Max.-Flux-Residual
  Residual-Control   Outer-Iter.   Inner-Iter.     Column Row Layer    Maximum-Head-Change  Column Row Layer    Maximum-Flux-Residual          L2-NORM 
          0                21           2             4    7     1      -0.4497160395E-03       4    7    1        -0.2347794401E-01      0.5750815929E-01
          0                22           2             4    7     1      -0.3806051241E-03       5    7    1        -0.1987062477E-01      0.4867197960E-01
          0                23           2             4    7     1      -0.3222096419E-03       4    7    1        -0.1682132825E-01      0.4120292551E-01
          0                24           2             4    7     1      -0.2728267657E-03       4    7    1        -0.1424323520E-01      0.3488817497E-01
          0                25           2             4    7     1      -0.2310552481E-03       4    7    1        -0.1206250531E-01      0.2954655892E-01
          0                26           2             4    7     1      -0.1957016926E-03       4    7    1        -0.1021683219E-01      0.2502566799E-01
          0                27           2             4    7     1      -0.1657711262E-03       4    7    1        -0.8654272488E-02      0.2119824866E-01
          0                28           2             4    7     1      -0.1404314064E-03       4    7    1        -0.7331383244E-02      0.1795789142E-01
          0                29           2             4    7     1      -0.1189802498E-03       4    7    1        -0.6211500901E-02      0.1521479037E-01
          0                30           1             4    7     1      -0.1008119896E-03       4    7    1        -0.5263005905E-02      0.1289149487E-01
          0                31           1             4    7     1      -0.8542089996E-04       4    7    1        -0.4459496431E-02      0.1092333482E-01

    ------------------------------------------------
       NWT REQUIRED           31 OUTER ITERATIONS 
       AND A TOTAL OF         60 INNER ITERATIONS.
    ------------------------------------------------

 NO OUTPUT CONTROL FOR STRESS PERIOD   32   TIME STEP    9
 
 SOLVING FOR HEAD 
                                                   Max.-Head-Change                         Max.-Flux-Residual
  Residual-Control   Outer-Iter.   Inner-Iter.     Column Row Layer    Maximum-Head-Change  Column Row Layer    Maximum-Flux-Residual          L2-NORM 
          0                 1           2             4    7     1      -0.1466410094E+00       4    7    1        -0.7700344614E+01      0.1634565357E+02
          0                 2           2             5    8     1      -0.4900113652E-02       5    8    1        -0.2712692091E+00      0.6634623013E+00
          0                 3           2             4    7     1      -0.1228593571E-01       4    7    1        -0.6418662978E+00      0.1539471488E+01
          0                 4           2             4    7     1      -0.8807544351E-02       5    8    1        -0.4620730162E+00      0.1129451601E+01
          0                 5           2             4    7     1      -0.7341367848E-02       4    7    1        -0.3832682986E+00      0.9384693507E+00
          0                 6           2             4    7     1      -0.6047302555E-02       5    6    1        -0.3157196039E+00      0.7733375097E+00
          0                 7           2             4    7     1      -0.5017381637E-02       4    7    1        -0.2619373194E+00      0.6416000734E+00
          0                 8           2             4    7     1      -0.4178063862E-02       4    7    1        -0.2181198544E+00      0.5342748921E+00
          0                 9           2             4    7     1      -0.3490103050E-02       4    7    1        -0.1822041932E+00      0.4463007851E+00
          0                10           2             4    7     1      -0.2922733904E-02       4    7    1        -0.1525841340E+00      0.3737478579E+00
                                                   Max.-Head-Change                         Max.-Flux-Residual
  Residual-Control   Outer-Iter.   Inner-Iter.     Column Row Layer    Maximum-Head-Change  Column Row Layer    Maximum-Flux-Residual          L2-NORM 
          0                11           2             4    7     1      -0.2452599928E-02       4    7    1        -0.1280403337E+00      0.3136289479E+00
          0                12           2             4    7     1      -0.2061504650E-02       4    7    1        -0.1076227995E+00      0.2636179161E+00
          0                13           2             4    7     1      -0.1735172524E-02       4    7    1        -0.9058634564E-01      0.2218870477E+00
          0                14           2             4    7     1      -0.1462154080E-02       4    7    1        -0.7633315199E-01      0.1869745883E+00
          0                15           2             4    7     1      -0.1233272624E-02       4    7    1        -0.6438417596E-01      0.1577061094E+00
          0                16           2             4    7     1      -0.1041024516E-02       4    7    1        -0.5434767902E-01      0.1331221692E+00
          0                17           2             4    7     1      -0.8793098140E-03       4    7    1        -0.4590520805E-01      0.1124427215E+00
          0                18           2             4    7     1      -0.7431303934E-03       4    7    1        -0.3879583107E-01      0.9502862659E-01
          0                19           2             4    7     1      -0.6283461255E-03       4    7    1        -0.3280340863E-01      0.8035046062E-01
          0                20           2             4    7     1      -0.5314983163E-03       4    7    1        -0.2774737622E-01      0.6796593918E-01
                                                   Max.-Head-Change                         Max.-Flux-Residual
  Residual-Control   Outer-Iter.   Inner-Iter.     Column Row Layer    Maximum-Head-Change  Column Row Layer    Maximum-Flux-Residual          L2-NORM 
          0                21           2             4    7     1      -0.4497177561E-03       4    7    1        -0.2347794398E-01      0.5750815902E-01
          0                22           2             4    7     1      -0.3806065768E-03       5    7    1        -0.1987062471E-01      0.4867197942E-01
          0                23           2             4    7     1      -0.3222108713E-03       4    7    1        -0.1682132821E-01      0.4120292535E-01
          0                24           2             4    7     1      -0.2728278069E-03       4    7    1        -0.1424323520E-01      0.3488817483E-01
          0                25           2             4    7     1      -0.2310561303E-03       4    7    1        -0.1206250531E-01      0.2954655877E-01
          0                26           2             4    7     1      -0.1957024400E-03       4    7    1        -0.1021683218E-01      0.2502566788E-01
          0                27           2             4    7     1      -0.1657717582E-03       4    7    1        -0.8654272457E-02      0.2119824855E-01
          0                28           2             4    7     1      -0.1404319427E-03       4    7    1        -0.7331383255E-02      0.1795789137E-01
          0                29           2             4    7     1      -0.1189807041E-03       4    7    1        -0.6211500898E-02      0.1521479029E-01
          0                30           1             4    7     1      -0.1008123744E-03       4    7    1        -0.5263005889E-02      0.1289149480E-01
          0                31           1             4    7     1      -0.8542122586E-04       4    7    1        -0.4459496417E-02      0.1092333477E-01

    ------------------------------------------------
       NWT REQUIRED           31 OUTER ITERATIONS 
       AND A TOTAL OF         60 INNER ITERATIONS.
    ------------------------------------------------

 NO OUTPUT CONTROL FOR STRESS PERIOD   32   TIME STEP   10
 
 SOLVING FOR HEAD 
                                                   Max.-Head-Change                         Max.-Flux-Residual
  Residual-Control   Outer-Iter.   Inner-Iter.     Column Row Layer    Maximum-Head-Change  Column Row Layer    Maximum-Flux-Residual          L2-NORM 
          0                 1           2             4    7     1      -0.1446321193E+00       4    7    1        -0.7597461742E+01      0.1604867772E+02
          0                 2           2             5    8     1      -0.5281977554E-02       5    8    1        -0.2921366179E+00      0.7103380709E+00
          0                 3           2             4    7     1      -0.1226588872E-01       4    7    1        -0.6408385430E+00      0.1535467392E+01
          0                 4           2             4    7     1      -0.8809588317E-02       5    8    1        -0.4622798765E+00      0.1129855791E+01
          0                 5           2             4    7     1      -0.7341195612E-02       4    7    1        -0.3832580421E+00      0.9384290173E+00
          0                 6           2             4    7     1      -0.6047346305E-02       5    6    1        -0.3157216297E+00      0.7733415376E+00
          0                 7           2             4    7     1      -0.5017399254E-02       4    7    1        -0.2619372167E+00      0.6415996683E+00
          0                 8           2             4    7     1      -0.4178080405E-02       4    7    1        -0.2181198644E+00      0.5342749306E+00
          0                 9           2             4    7     1      -0.3490116681E-02       4    7    1        -0.1822041920E+00      0.4463007796E+00
          0                10           2             4    7     1      -0.2922745339E-02       4    7    1        -0.1525841339E+00      0.3737478571E+00
                                                   Max.-Head-Change                         Max.-Flux-Residual
  Residual-Control   Outer-Iter.   Inner-Iter.     Column Row Layer    Maximum-Head-Change  Column Row Layer    Maximum-Flux-Residual          L2-NORM 
          0                11           2             4    7     1      -0.2452609521E-02       4    7    1        -0.1280403336E+00      0.3136289468E+00
          0                12           2             4    7     1      -0.2061512714E-02       4    7    1        -0.1076227994E+00      0.2636179152E+00
          0                13           2             4    7     1      -0.1735179311E-02       4    7    1        -0.9058634556E-01      0.2218870469E+00
          0                14           2             4    7     1      -0.1462159799E-02       4    7    1        -0.7633315194E-01      0.1869745877E+00
          0                15           2             4    7     1      -0.1233277448E-02       4    7    1        -0.6438417591E-01      0.1577061088E+00
          0                16           2             4    7     1      -0.1041028588E-02       4    7    1        -0.5434767898E-01      0.1331221688E+00
          0                17           2             4    7     1      -0.8793132536E-03       4    7    1        -0.4590520801E-01      0.1124427211E+00
          0                18           2             4    7     1      -0.7431333002E-03       4    7    1        -0.3879583104E-01      0.9502862627E-01
          0                19           2             4    7     1      -0.6283485838E-03       4    7    1        -0.3280340861E-01      0.8035046036E-01
          0                20           2             4    7     1      -0.5315003948E-03       4    7    1        -0.2774737618E-01      0.6796593896E-01
                                                   Max.-Head-Change                         Max.-Flux-Residual
  Residual-Control   Outer-Iter.   Inner-Iter.     Column Row Layer    Maximum-Head-Change  Column Row Layer    Maximum-Flux-Residual          L2-NORM 
          0                21           2             4    7     1      -0.4497195156E-03       4    7    1        -0.2347794398E-01      0.5750815883E-01
          0                22           2             4    7     1      -0.3806080651E-03       5    7    1        -0.1987062463E-01      0.4867197920E-01
          0                23           2             4    7     1      -0.3222121317E-03       4    7    1        -0.1682132820E-01      0.4120292518E-01
          0                24           2             4    7     1      -0.2728288743E-03       4    7    1        -0.1424323519E-01      0.3488817471E-01
          0                25           2             4    7     1      -0.2310570341E-03       4    7    1        -0.1206250529E-01      0.2954655868E-01
          0                26           2             4    7     1      -0.1957032052E-03       4    7    1        -0.1021683216E-01      0.2502566782E-01
          0                27           2             4    7     1      -0.1657724071E-03       4    7    1        -0.8654272467E-02      0.2119824848E-01
          0                28           2             4    7     1      -0.1404324920E-03       4    7    1        -0.7331383242E-02      0.1795789129E-01
          0                29           2             4    7     1      -0.1189811692E-03       4    7    1        -0.6211500884E-02      0.1521479023E-01
          0                30           1             4    7     1      -0.1008127688E-03       4    7    1        -0.5263005900E-02      0.1289149476E-01
          0                31           1             4    7     1      -0.8542156013E-04       4    7    1        -0.4459496415E-02      0.1092333474E-01

    ------------------------------------------------
       NWT REQUIRED           31 OUTER ITERATIONS 
       AND A TOTAL OF         60 INNER ITERATIONS.
    ------------------------------------------------

 NO OUTPUT CONTROL FOR STRESS PERIOD   32   TIME STEP   11
 
 SOLVING FOR HEAD 
                                                   Max.-Head-Change                         Max.-Flux-Residual
  Residual-Control   Outer-Iter.   Inner-Iter.     Column Row Layer    Maximum-Head-Change  Column Row Layer    Maximum-Flux-Residual          L2-NORM 
          0                 1           2             4    7     1      -0.1425990984E+00       4    7    1        -0.7493088961E+01      0.1576717684E+02
          0                 2           2             5    8     1      -0.5645422429E-02       5    8    1        -0.3119798014E+00      0.7553759408E+00
          0                 3           2             4    7     1      -0.1224560143E-01       4    7    1        -0.6397958738E+00      0.1531585880E+01
          0                 4           2             4    7     1      -0.8811657177E-02       5    8    1        -0.4624766172E+00      0.1130247728E+01
          0                 5           2             4    7     1      -0.7341021595E-02       4    7    1        -0.3832476360E+00      0.9383899044E+00
          0                 6           2             4    7     1      -0.6047390817E-02       5    6    1        -0.3157235628E+00      0.7733454439E+00
          0                 7           2             4    7     1      -0.5017417278E-02       4    7    1        -0.2619371124E+00      0.6415992755E+00
          0                 8           2             4    7     1      -0.4178097311E-02       4    7    1        -0.2181198747E+00      0.5342749680E+00
          0                 9           2             4    7     1      -0.3490130614E-02       4    7    1        -0.1822041908E+00      0.4463007743E+00
          0                10           2             4    7     1      -0.2922757025E-02       4    7    1        -0.1525841339E+00      0.3737478563E+00
                                                   Max.-Head-Change                         Max.-Flux-Residual
  Residual-Control   Outer-Iter.   Inner-Iter.     Column Row Layer    Maximum-Head-Change  Column Row Layer    Maximum-Flux-Residual          L2-NORM 
          0                11           2             4    7     1      -0.2452619326E-02       4    7    1        -0.1280403335E+00      0.3136289458E+00
          0                12           2             4    7     1      -0.2061520955E-02       4    7    1        -0.1076227993E+00      0.2636179144E+00
          0                13           2             4    7     1      -0.1735186248E-02       4    7    1        -0.9058634549E-01      0.2218870462E+00
          0                14           2             4    7     1      -0.1462165645E-02       4    7    1        -0.7633315189E-01      0.1869745871E+00
          0                15           2             4    7     1      -0.1233282378E-02       4    7    1        -0.6438417586E-01      0.1577061083E+00
          0                16           2             4    7     1      -0.1041032750E-02       4    7    1        -0.5434767893E-01      0.1331221684E+00
          0                17           2             4    7     1      -0.8793167688E-03       4    7    1        -0.4590520799E-01      0.1124427208E+00
          0                18           2             4    7     1      -0.7431362714E-03       4    7    1        -0.3879583102E-01      0.9502862597E-01
          0                19           2             4    7     1      -0.6283510955E-03       4    7    1        -0.3280340857E-01      0.8035046010E-01
          0                20           2             4    7     1      -0.5315025198E-03       4    7    1        -0.2774737615E-01      0.6796593874E-01
                                                   Max.-Head-Change                         Max.-Flux-Residual
  Residual-Control   Outer-Iter.   Inner-Iter.     Column Row Layer    Maximum-Head-Change  Column Row Layer    Maximum-Flux-Residual          L2-NORM 
          0                21           2             4    7     1      -0.4497213129E-03       4    7    1        -0.2347794394E-01      0.5750815866E-01
          0                22           2             4    7     1      -0.3806095868E-03       5    7    1        -0.1987062462E-01      0.4867197909E-01
          0                23           2             4    7     1      -0.3222134201E-03       4    7    1        -0.1682132819E-01      0.4120292504E-01
          0                24           2             4    7     1      -0.2728299647E-03       4    7    1        -0.1424323516E-01      0.3488817459E-01
          0                25           2             4    7     1      -0.2310579575E-03       4    7    1        -0.1206250528E-01      0.2954655861E-01
          0                26           2             4    7     1      -0.1957039875E-03       4    7    1        -0.1021683218E-01      0.2502566772E-01
          0                27           2             4    7     1      -0.1657730702E-03       4    7    1        -0.8654272476E-02      0.2119824842E-01
          0                28           2             4    7     1      -0.1404330537E-03       4    7    1        -0.7331383227E-02      0.1795789124E-01
          0                29           2             4    7     1      -0.1189816446E-03       4    7    1        -0.6211500860E-02      0.1521479019E-01
          0                30           1             4    7     1      -0.1008131718E-03       4    7    1        -0.5263005889E-02      0.1289149471E-01
          0                31           1             4    7     1      -0.8542190166E-04       4    7    1        -0.4459496414E-02      0.1092333468E-01

    ------------------------------------------------
       NWT REQUIRED           31 OUTER ITERATIONS 
       AND A TOTAL OF         60 INNER ITERATIONS.
    ------------------------------------------------

 NO OUTPUT CONTROL FOR STRESS PERIOD   32   TIME STEP   12
 
 SOLVING FOR HEAD 
                                                   Max.-Head-Change                         Max.-Flux-Residual
  Residual-Control   Outer-Iter.   Inner-Iter.     Column Row Layer    Maximum-Head-Change  Column Row Layer    Maximum-Flux-Residual          L2-NORM 
          0                 1           2             4    7     1      -0.1405462475E+00       4    7    1        -0.7387465703E+01      0.1550010084E+02
          0                 2           2             5    8     1      -0.5991645949E-02       5    8    1        -0.3308661938E+00      0.7987308788E+00
          0                 3           2             4    7     1      -0.1222511681E-01       4    7    1        -0.6387406838E+00      0.1527821670E+01
          0                 4           2             4    7     1      -0.8813746539E-02       5    8    1        -0.4626639031E+00      0.1130627920E+01
          0                 5           2             4    7     1      -0.7340846161E-02       4    7    1        -0.3832371042E+00      0.9383519617E+00
          0                 6           2             4    7     1      -0.6047435993E-02       5    6    1        -0.3157254086E+00      0.7733492335E+00
          0                 7           2             4    7     1      -0.5017435668E-02       4    7    1        -0.2619370069E+00      0.6415988946E+00
          0                 8           2             4    7     1      -0.4178114541E-02       4    7    1        -0.2181198850E+00      0.5342750043E+00
          0                 9           2             4    7     1      -0.3490144814E-02       4    7    1        -0.1822041896E+00      0.4463007692E+00
          0                10           2             4    7     1      -0.2922768936E-02       4    7    1        -0.1525841339E+00      0.3737478556E+00
                                                   Max.-Head-Change                         Max.-Flux-Residual
  Residual-Control   Outer-Iter.   Inner-Iter.     Column Row Layer    Maximum-Head-Change  Column Row Layer    Maximum-Flux-Residual          L2-NORM 
          0                11           2             4    7     1      -0.2452629320E-02       4    7    1        -0.1280403334E+00      0.3136289449E+00
          0                12           2             4    7     1      -0.2061529355E-02       4    7    1        -0.1076227992E+00      0.2636179136E+00
          0                13           2             4    7     1      -0.1735193318E-02       4    7    1        -0.9058634542E-01      0.2218870456E+00
          0                14           2             4    7     1      -0.1462171603E-02       4    7    1        -0.7633315183E-01      0.1869745866E+00
          0                15           2             4    7     1      -0.1233287404E-02       4    7    1        -0.6438417582E-01      0.1577061079E+00
          0                16           2             4    7     1      -0.1041036992E-02       4    7    1        -0.5434767889E-01      0.1331221680E+00
          0                17           2             4    7     1      -0.8793203512E-03       4    7    1        -0.4590520793E-01      0.1124427205E+00
          0                18           2             4    7     1      -0.7431392997E-03       4    7    1        -0.3879583100E-01      0.9502862571E-01
          0                19           2             4    7     1      -0.6283536554E-03       4    7    1        -0.3280340853E-01      0.8035045987E-01
          0                20           2             4    7     1      -0.5315046858E-03       4    7    1        -0.2774737614E-01      0.6796593855E-01
                                                   Max.-Head-Change                         Max.-Flux-Residual
  Residual-Control   Outer-Iter.   Inner-Iter.     Column Row Layer    Maximum-Head-Change  Column Row Layer    Maximum-Flux-Residual          L2-NORM 
          0                21           2             4    7     1      -0.4497231453E-03       4    7    1        -0.2347794392E-01      0.5750815848E-01
          0                22           2             4    7     1      -0.3806111374E-03       5    7    1        -0.1987062456E-01      0.4867197894E-01
          0                23           2             4    7     1      -0.3222147329E-03       4    7    1        -0.1682132817E-01      0.4120292495E-01
          0                24           2             4    7     1      -0.2728310765E-03       4    7    1        -0.1424323515E-01      0.3488817449E-01
          0                25           2             4    7     1      -0.2310588990E-03       4    7    1        -0.1206250527E-01      0.2954655851E-01
          0                26           2             4    7     1      -0.1957047850E-03       4    7    1        -0.1021683216E-01      0.2502566765E-01
          0                27           2             4    7     1      -0.1657737456E-03       4    7    1        -0.8654272460E-02      0.2119824836E-01
          0                28           2             4    7     1      -0.1404336255E-03       4    7    1        -0.7331383216E-02      0.1795789119E-01
          0                29           2             4    7     1      -0.1189821295E-03       4    7    1        -0.6211500863E-02      0.1521479015E-01
          0                30           1             4    7     1      -0.1008135824E-03       4    7    1        -0.5263005888E-02      0.1289149469E-01
          0                31           1             4    7     1      -0.8542224994E-04       4    7    1        -0.4459496417E-02      0.1092333468E-01

    ------------------------------------------------
       NWT REQUIRED           31 OUTER ITERATIONS 
       AND A TOTAL OF         60 INNER ITERATIONS.
    ------------------------------------------------

 NO OUTPUT CONTROL FOR STRESS PERIOD   32   TIME STEP   13
 
 SOLVING FOR HEAD 
                                                   Max.-Head-Change                         Max.-Flux-Residual
  Residual-Control   Outer-Iter.   Inner-Iter.     Column Row Layer    Maximum-Head-Change  Column Row Layer    Maximum-Flux-Residual          L2-NORM 
          0                 1           2             4    7     1      -0.1384774221E+00       4    7    1        -0.7280807602E+01      0.1524652550E+02
          0                 2           2             5    8     1      -0.6321715818E-02       5    8    1        -0.3488556991E+00      0.8404787389E+00
          0                 3           2             4    7     1      -0.1220447334E-01       4    7    1        -0.6376751285E+00      0.1524169471E+01
          0                 4           2             4    7     1      -0.8815852476E-02       5    8    1        -0.4628423255E+00      0.1130996872E+01
          0                 5           2             4    7     1      -0.7340669634E-02       4    7    1        -0.3832264684E+00      0.9383151387E+00
          0                 6           2             4    7     1      -0.6047481743E-02       5    6    1        -0.3157271724E+00      0.7733529115E+00
          0                 7           2             4    7     1      -0.5017454388E-02       4    7    1        -0.2619369004E+00      0.6415985250E+00
          0                 8           2             4    7     1      -0.4178132060E-02       4    7    1        -0.2181198955E+00      0.5342750397E+00
          0                 9           2             4    7     1      -0.3490159254E-02       4    7    1        -0.1822041884E+00      0.4463007643E+00
          0                10           2             4    7     1      -0.2922781048E-02       4    7    1        -0.1525841339E+00      0.3737478550E+00
                                                   Max.-Head-Change                         Max.-Flux-Residual
  Residual-Control   Outer-Iter.   Inner-Iter.     Column Row Layer    Maximum-Head-Change  Column Row Layer    Maximum-Flux-Residual          L2-NORM 
          0                11           2             4    7     1      -0.2452639482E-02       4    7    1        -0.1280403333E+00      0.3136289440E+00
          0                12           2             4    7     1      -0.2061537896E-02       4    7    1        -0.1076227992E+00      0.2636179130E+00
          0                13           2             4    7     1      -0.1735200507E-02       4    7    1        -0.9058634534E-01      0.2218870450E+00
          0                14           2             4    7     1      -0.1462177661E-02       4    7    1        -0.7633315177E-01      0.1869745861E+00
          0                15           2             4    7     1      -0.1233292513E-02       4    7    1        -0.6438417575E-01      0.1577061075E+00
          0                16           2             4    7     1      -0.1041041306E-02       4    7    1        -0.5434767887E-01      0.1331221677E+00
          0                17           2             4    7     1      -0.8793239947E-03       4    7    1        -0.4590520790E-01      0.1124427202E+00
          0                18           2             4    7     1      -0.7431423783E-03       4    7    1        -0.3879583097E-01      0.9502862551E-01
          0                19           2             4    7     1      -0.6283562594E-03       4    7    1        -0.3280340853E-01      0.8035045969E-01
          0                20           2             4    7     1      -0.5315068876E-03       4    7    1        -0.2774737611E-01      0.6796593839E-01
                                                   Max.-Head-Change                         Max.-Flux-Residual
  Residual-Control   Outer-Iter.   Inner-Iter.     Column Row Layer    Maximum-Head-Change  Column Row Layer    Maximum-Flux-Residual          L2-NORM 
          0                21           2             4    7     1      -0.4497250088E-03       4    7    1        -0.2347794391E-01      0.5750815834E-01
          0                22           2             4    7     1      -0.3806127144E-03       5    7    1        -0.1987062454E-01      0.4867197882E-01
          0                23           2             4    7     1      -0.3222160682E-03       4    7    1        -0.1682132815E-01      0.4120292482E-01
          0                24           2             4    7     1      -0.2728322064E-03       4    7    1        -0.1424323512E-01      0.3488817449E-01
          0                25           2             4    7     1      -0.2310598564E-03       4    7    1        -0.1206250528E-01      0.2954655849E-01
          0                26           2             4    7     1      -0.1957055964E-03       4    7    1        -0.1021683216E-01      0.2502566764E-01
          0                27           2             4    7     1      -0.1657744319E-03       4    7    1        -0.8654272428E-02      0.2119824828E-01
          0                28           2             4    7     1      -0.1404342074E-03       4    7    1        -0.7331383214E-02      0.1795789114E-01
          0                29           2             4    7     1      -0.1189826226E-03       4    7    1        -0.6211500864E-02      0.1521479010E-01
          0                30           1             4    7     1      -0.1008140004E-03       4    7    1        -0.5263005886E-02      0.1289149464E-01
          0                31           1             4    7     1      -0.8542260347E-04       4    7    1        -0.4459496403E-02      0.1092333465E-01

    ------------------------------------------------
       NWT REQUIRED           31 OUTER ITERATIONS 
       AND A TOTAL OF         60 INNER ITERATIONS.
    ------------------------------------------------

 NO OUTPUT CONTROL FOR STRESS PERIOD   32   TIME STEP   14
 
 SOLVING FOR HEAD 
                                                   Max.-Head-Change                         Max.-Flux-Residual
  Residual-Control   Outer-Iter.   Inner-Iter.     Column Row Layer    Maximum-Head-Change  Column Row Layer    Maximum-Flux-Residual          L2-NORM 
          0                 1           2             4    7     1      -0.1363964607E+00       4    7    1        -0.7173329073E+01      0.1500560899E+02
          0                 2           2             5    8     1      -0.6636688083E-02       5    8    1        -0.3660075802E+00      0.8806955891E+00
          0                 3           2             4    7     1      -0.1218370928E-01       4    7    1        -0.6366013511E+00      0.1520624373E+01
          0                 4           2             4    7     1      -0.8817971077E-02       5    8    1        -0.4630124695E+00      0.1131355057E+01
          0                 5           2             4    7     1      -0.7340492337E-02       4    7    1        -0.3832157497E+00      0.9382793884E+00
          0                 6           2             4    7     1      -0.6047527980E-02       5    6    1        -0.3157288592E+00      0.7733564825E+00
          0                 7           2             4    7     1      -0.5017473398E-02       4    7    1        -0.2619367931E+00      0.6415981663E+00
          0                 8           2             4    7     1      -0.4178149831E-02       4    7    1        -0.2181199060E+00      0.5342750742E+00
          0                 9           2             4    7     1      -0.3490173905E-02       4    7    1        -0.1822041872E+00      0.4463007597E+00
          0                10           2             4    7     1      -0.2922793337E-02       4    7    1        -0.1525841339E+00      0.3737478545E+00
                                                   Max.-Head-Change                         Max.-Flux-Residual
  Residual-Control   Outer-Iter.   Inner-Iter.     Column Row Layer    Maximum-Head-Change  Column Row Layer    Maximum-Flux-Residual          L2-NORM 
          0                11           2             4    7     1      -0.2452649791E-02       4    7    1        -0.1280403332E+00      0.3136289432E+00
          0                12           2             4    7     1      -0.2061546562E-02       4    7    1        -0.1076227991E+00      0.2636179124E+00
          0                13           2             4    7     1      -0.1735207801E-02       4    7    1        -0.9058634527E-01      0.2218870445E+00
          0                14           2             4    7     1      -0.1462183807E-02       4    7    1        -0.7633315171E-01      0.1869745857E+00
          0                15           2             4    7     1      -0.1233297698E-02       4    7    1        -0.6438417572E-01      0.1577061071E+00
          0                16           2             4    7     1      -0.1041045682E-02       4    7    1        -0.5434767882E-01      0.1331221673E+00
          0                17           2             4    7     1      -0.8793276911E-03       4    7    1        -0.4590520787E-01      0.1124427199E+00
          0                18           2             4    7     1      -0.7431455026E-03       4    7    1        -0.3879583095E-01      0.9502862526E-01
          0                19           2             4    7     1      -0.6283589006E-03       4    7    1        -0.3280340850E-01      0.8035045948E-01
          0                20           2             4    7     1      -0.5315091220E-03       4    7    1        -0.2774737609E-01      0.6796593821E-01
                                                   Max.-Head-Change                         Max.-Flux-Residual
  Residual-Control   Outer-Iter.   Inner-Iter.     Column Row Layer    Maximum-Head-Change  Column Row Layer    Maximum-Flux-Residual          L2-NORM 
          0                21           2             4    7     1      -0.4497268992E-03       4    7    1        -0.2347794389E-01      0.5750815821E-01
          0                22           2             4    7     1      -0.3806143144E-03       5    7    1        -0.1987062448E-01      0.4867197870E-01
          0                23           2             4    7     1      -0.3222174221E-03       4    7    1        -0.1682132814E-01      0.4120292474E-01
          0                24           2             4    7     1      -0.2728333542E-03       4    7    1        -0.1424323515E-01      0.3488817441E-01
          0                25           2             4    7     1      -0.2310608275E-03       4    7    1        -0.1206250525E-01      0.2954655841E-01
          0                26           2             4    7     1      -0.1957064187E-03       4    7    1        -0.1021683216E-01      0.2502566754E-01
          0                27           2             4    7     1      -0.1657751293E-03       4    7    1        -0.8654272448E-02      0.2119824825E-01
          0                28           2             4    7     1      -0.1404347973E-03       4    7    1        -0.7331383204E-02      0.1795789112E-01
          0                29           2             4    7     1      -0.1189831229E-03       4    7    1        -0.6211500879E-02      0.1521479008E-01
          0                30           1             4    7     1      -0.1008144244E-03       4    7    1        -0.5263005891E-02      0.1289149464E-01
          0                31           1             4    7     1      -0.8542296263E-04       4    7    1        -0.4459496396E-02      0.1092333461E-01

    ------------------------------------------------
       NWT REQUIRED           31 OUTER ITERATIONS 
       AND A TOTAL OF         60 INNER ITERATIONS.
    ------------------------------------------------

 NO OUTPUT CONTROL FOR STRESS PERIOD   32   TIME STEP   15
 
 SOLVING FOR HEAD 
                                                   Max.-Head-Change                         Max.-Flux-Residual
  Residual-Control   Outer-Iter.   Inner-Iter.     Column Row Layer    Maximum-Head-Change  Column Row Layer    Maximum-Flux-Residual          L2-NORM 
          0                 1           2             4    7     1      -0.1343066544E+00       4    7    1        -0.7065214569E+01      0.1477656957E+02
          0                 2           2             5    8     1      -0.6937497707E-02       5    8    1        -0.3823742531E+00      0.9194554852E+00
          0                 3           2             4    7     1      -0.1216285746E-01       4    7    1        -0.6355211956E+00      0.1517181719E+01
          0                 4           2             4    7     1      -0.8820098986E-02       5    8    1        -0.4631748524E+00      0.1131702923E+01
          0                 5           2             4    7     1      -0.7340314547E-02       4    7    1        -0.3832049669E+00      0.9382446658E+00
          0                 6           2             4    7     1      -0.6047574628E-02       5    6    1        -0.3157304733E+00      0.7733599511E+00
          0                 7           2             4    7     1      -0.5017492666E-02       4    7    1        -0.2619366851E+00      0.6415978180E+00
          0                 8           2             4    7     1      -0.4178167826E-02       4    7    1        -0.2181199167E+00      0.5342751078E+00
          0                 9           2             4    7     1      -0.3490188741E-02       4    7    1        -0.1822041860E+00      0.4463007554E+00
          0                10           2             4    7     1      -0.2922805781E-02       4    7    1        -0.1525841339E+00      0.3737478541E+00
                                                   Max.-Head-Change                         Max.-Flux-Residual
  Residual-Control   Outer-Iter.   Inner-Iter.     Column Row Layer    Maximum-Head-Change  Column Row Layer    Maximum-Flux-Residual          L2-NORM 
          0                11           2             4    7     1      -0.2452660232E-02       4    7    1        -0.1280403331E+00      0.3136289426E+00
          0                12           2             4    7     1      -0.2061555338E-02       4    7    1        -0.1076227990E+00      0.2636179118E+00
          0                13           2             4    7     1      -0.1735215188E-02       4    7    1        -0.9058634523E-01      0.2218870440E+00
          0                14           2             4    7     1      -0.1462190032E-02       4    7    1        -0.7633315168E-01      0.1869745853E+00
          0                15           2             4    7     1      -0.1233302948E-02       4    7    1        -0.6438417568E-01      0.1577061068E+00
          0                16           2             4    7     1      -0.1041050113E-02       4    7    1        -0.5434767879E-01      0.1331221671E+00
          0                17           2             4    7     1      -0.8793314345E-03       4    7    1        -0.4590520784E-01      0.1124427197E+00
          0                18           2             4    7     1      -0.7431486657E-03       4    7    1        -0.3879583091E-01      0.9502862505E-01
          0                19           2             4    7     1      -0.6283615756E-03       4    7    1        -0.3280340849E-01      0.8035045932E-01
          0                20           2             4    7     1      -0.5315113845E-03       4    7    1        -0.2774737608E-01      0.6796593807E-01
                                                   Max.-Head-Change                         Max.-Flux-Residual
  Residual-Control   Outer-Iter.   Inner-Iter.     Column Row Layer    Maximum-Head-Change  Column Row Layer    Maximum-Flux-Residual          L2-NORM 
          0                21           2             4    7     1      -0.4497288137E-03       4    7    1        -0.2347794388E-01      0.5750815810E-01
          0                22           2             4    7     1      -0.3806159341E-03       5    7    1        -0.1987062446E-01      0.4867197861E-01
          0                23           2             4    7     1      -0.3222187944E-03       4    7    1        -0.1682132815E-01      0.4120292466E-01
          0                24           2             4    7     1      -0.2728345153E-03       4    7    1        -0.1424323512E-01      0.3488817426E-01
          0                25           2             4    7     1      -0.2310618113E-03       4    7    1        -0.1206250524E-01      0.2954655830E-01
          0                26           2             4    7     1      -0.1957072517E-03       4    7    1        -0.1021683214E-01      0.2502566750E-01
          0                27           2             4    7     1      -0.1657758346E-03       4    7    1        -0.8654272433E-02      0.2119824822E-01
          0                28           2             4    7     1      -0.1404353958E-03       4    7    1        -0.7331383217E-02      0.1795789107E-01
          0                29           2             4    7     1      -0.1189836290E-03       4    7    1        -0.6211500855E-02      0.1521479005E-01
          0                30           1             4    7     1      -0.1008148534E-03       4    7    1        -0.5263005889E-02      0.1289149461E-01
          0                31           1             4    7     1      -0.8542332642E-04       4    7    1        -0.4459496405E-02      0.1092333460E-01

    ------------------------------------------------
       NWT REQUIRED           31 OUTER ITERATIONS 
       AND A TOTAL OF         60 INNER ITERATIONS.
    ------------------------------------------------

 NO OUTPUT CONTROL FOR STRESS PERIOD   32   TIME STEP   16
 
 SOLVING FOR HEAD 
                                                   Max.-Head-Change                         Max.-Flux-Residual
  Residual-Control   Outer-Iter.   Inner-Iter.     Column Row Layer    Maximum-Head-Change  Column Row Layer    Maximum-Flux-Residual          L2-NORM 
          0                 1           2             4    7     1      -0.1322110456E+00       4    7    1        -0.6956634721E+01      0.1455868595E+02
          0                 2           2             5    8     1      -0.7225024208E-02       5    8    1        -0.3980049766E+00      0.9568296518E+00
          0                 3           2             4    7     1      -0.1214194822E-01       4    7    1        -0.6344363680E+00      0.1513837134E+01
          0                 4           2             4    7     1      -0.8822233103E-02       5    8    1        -0.4633299606E+00      0.1132040898E+01
          0                 5           2             4    7     1      -0.7340136519E-02       4    7    1        -0.3831941369E+00      0.9382109286E+00
          0                 6           2             4    7     1      -0.6047621614E-02       5    6    1        -0.3157320192E+00      0.7733633215E+00
          0                 7           2             4    7     1      -0.5017512162E-02       4    7    1        -0.2619365767E+00      0.6415974797E+00
          0                 8           2             4    7     1      -0.4178186016E-02       4    7    1        -0.2181199274E+00      0.5342751405E+00
          0                 9           2             4    7     1      -0.3490203739E-02       4    7    1        -0.1822041848E+00      0.4463007511E+00
          0                10           2             4    7     1      -0.2922818361E-02       4    7    1        -0.1525841339E+00      0.3737478537E+00
                                                   Max.-Head-Change                         Max.-Flux-Residual
  Residual-Control   Outer-Iter.   Inner-Iter.     Column Row Layer    Maximum-Head-Change  Column Row Layer    Maximum-Flux-Residual          L2-NORM 
          0                11           2             4    7     1      -0.2452670786E-02       4    7    1        -0.1280403330E+00      0.3136289419E+00
          0                12           2             4    7     1      -0.2061564209E-02       4    7    1        -0.1076227989E+00      0.2636179113E+00
          0                13           2             4    7     1      -0.1735222655E-02       4    7    1        -0.9058634516E-01      0.2218870436E+00
          0                14           2             4    7     1      -0.1462196324E-02       4    7    1        -0.7633315161E-01      0.1869745849E+00
          0                15           2             4    7     1      -0.1233308255E-02       4    7    1        -0.6438417564E-01      0.1577061065E+00
          0                16           2             4    7     1      -0.1041054593E-02       4    7    1        -0.5434767874E-01      0.1331221668E+00
          0                17           2             4    7     1      -0.8793352186E-03       4    7    1        -0.4590520782E-01      0.1124427195E+00
          0                18           2             4    7     1      -0.7431518638E-03       4    7    1        -0.3879583088E-01      0.9502862488E-01
          0                19           2             4    7     1      -0.6283642796E-03       4    7    1        -0.3280340846E-01      0.8035045917E-01
          0                20           2             4    7     1      -0.5315136717E-03       4    7    1        -0.2774737606E-01      0.6796593796E-01
                                                   Max.-Head-Change                         Max.-Flux-Residual
  Residual-Control   Outer-Iter.   Inner-Iter.     Column Row Layer    Maximum-Head-Change  Column Row Layer    Maximum-Flux-Residual          L2-NORM 
          0                21           2             4    7     1      -0.4497307491E-03       4    7    1        -0.2347794387E-01      0.5750815799E-01
          0                22           2             4    7     1      -0.3806175721E-03       5    7    1        -0.1987062442E-01      0.4867197851E-01
          0                23           2             4    7     1      -0.3222201809E-03       4    7    1        -0.1682132813E-01      0.4120292457E-01
          0                24           2             4    7     1      -0.2728356893E-03       4    7    1        -0.1424323511E-01      0.3488817418E-01
          0                25           2             4    7     1      -0.2310628059E-03       4    7    1        -0.1206250523E-01      0.2954655826E-01
          0                26           2             4    7     1      -0.1957080937E-03       4    7    1        -0.1021683212E-01      0.2502566744E-01
          0                27           2             4    7     1      -0.1657765480E-03       4    7    1        -0.8654272419E-02      0.2119824815E-01
          0                28           2             4    7     1      -0.1404360001E-03       4    7    1        -0.7331383206E-02      0.1795789103E-01
          0                29           2             4    7     1      -0.1189841411E-03       4    7    1        -0.6211500843E-02      0.1521479002E-01
          0                30           1             4    7     1      -0.1008152871E-03       4    7    1        -0.5263005875E-02      0.1289149457E-01
          0                31           1             4    7     1      -0.8542369408E-04       4    7    1        -0.4459496398E-02      0.1092333456E-01

    ------------------------------------------------
       NWT REQUIRED           31 OUTER ITERATIONS 
       AND A TOTAL OF         60 INNER ITERATIONS.
    ------------------------------------------------

 NO OUTPUT CONTROL FOR STRESS PERIOD   32   TIME STEP   17
 
 SOLVING FOR HEAD 
                                                   Max.-Head-Change                         Max.-Flux-Residual
  Residual-Control   Outer-Iter.   Inner-Iter.     Column Row Layer    Maximum-Head-Change  Column Row Layer    Maximum-Flux-Residual          L2-NORM 
          0                 1           2             4    7     1      -0.1301127007E+00       4    7    1        -0.6847761765E+01      0.1435130086E+02
          0                 2           2             5    8     1      -0.7500067432E-02       5    8    1        -0.4129445760E+00      0.9928861651E+00
          0                 3           2             4    7     1      -0.1212101213E-01       4    7    1        -0.6333485900E+00      0.1510586565E+01
          0                 4           2             4    7     1      -0.8824370304E-02       5    8    1        -0.4634782364E+00      0.1132369378E+01
          0                 5           2             4    7     1      -0.7339958508E-02       4    7    1        -0.3831832769E+00      0.9381781373E+00
          0                 6           2             4    7     1      -0.6047668868E-02       5    6    1        -0.3157335006E+00      0.7733665975E+00
          0                 7           2             4    7     1      -0.5017531854E-02       4    7    1        -0.2619364679E+00      0.6415971509E+00
          0                 8           2             4    7     1      -0.4178204372E-02       4    7    1        -0.2181199381E+00      0.5342751723E+00
          0                 9           2             4    7     1      -0.3490218877E-02       4    7    1        -0.1822041836E+00      0.4463007471E+00
          0                10           2             4    7     1      -0.2922831057E-02       4    7    1        -0.1525841339E+00      0.3737478534E+00
                                                   Max.-Head-Change                         Max.-Flux-Residual
  Residual-Control   Outer-Iter.   Inner-Iter.     Column Row Layer    Maximum-Head-Change  Column Row Layer    Maximum-Flux-Residual          L2-NORM 
          0                11           2             4    7     1      -0.2452681438E-02       4    7    1        -0.1280403329E+00      0.3136289414E+00
          0                12           2             4    7     1      -0.2061573162E-02       4    7    1        -0.1076227989E+00      0.2636179109E+00
          0                13           2             4    7     1      -0.1735230192E-02       4    7    1        -0.9058634513E-01      0.2218870433E+00
          0                14           2             4    7     1      -0.1462202675E-02       4    7    1        -0.7633315157E-01      0.1869745846E+00
          0                15           2             4    7     1      -0.1233313611E-02       4    7    1        -0.6438417558E-01      0.1577061062E+00
          0                16           2             4    7     1      -0.1041059115E-02       4    7    1        -0.5434767872E-01      0.1331221666E+00
          0                17           2             4    7     1      -0.8793390374E-03       4    7    1        -0.4590520777E-01      0.1124427193E+00
          0                18           2             4    7     1      -0.7431550912E-03       4    7    1        -0.3879583085E-01      0.9502862471E-01
          0                19           2             4    7     1      -0.6283670089E-03       4    7    1        -0.3280340845E-01      0.8035045903E-01
          0                20           2             4    7     1      -0.5315159799E-03       4    7    1        -0.2774737603E-01      0.6796593784E-01
                                                   Max.-Head-Change                         Max.-Flux-Residual
  Residual-Control   Outer-Iter.   Inner-Iter.     Column Row Layer    Maximum-Head-Change  Column Row Layer    Maximum-Flux-Residual          L2-NORM 
          0                21           2             4    7     1      -0.4497327022E-03       4    7    1        -0.2347794385E-01      0.5750815789E-01
          0                22           2             4    7     1      -0.3806192248E-03       5    7    1        -0.1987062441E-01      0.4867197844E-01
          0                23           2             4    7     1      -0.3222215802E-03       4    7    1        -0.1682132812E-01      0.4120292450E-01
          0                24           2             4    7     1      -0.2728368743E-03       4    7    1        -0.1424323511E-01      0.3488817413E-01
          0                25           2             4    7     1      -0.2310638093E-03       4    7    1        -0.1206250524E-01      0.2954655820E-01
          0                26           2             4    7     1      -0.1957089436E-03       4    7    1        -0.1021683212E-01      0.2502566740E-01
          0                27           2             4    7     1      -0.1657772683E-03       4    7    1        -0.8654272437E-02      0.2119824813E-01
          0                28           2             4    7     1      -0.1404366101E-03       4    7    1        -0.7331383201E-02      0.1795789101E-01
          0                29           2             4    7     1      -0.1189846578E-03       4    7    1        -0.6211500839E-02      0.1521478997E-01
          0                30           1             4    7     1      -0.1008157250E-03       4    7    1        -0.5263005868E-02      0.1289149455E-01
          0                31           1             4    7     1      -0.8542406474E-04       4    7    1        -0.4459496387E-02      0.1092333456E-01

    ------------------------------------------------
       NWT REQUIRED           31 OUTER ITERATIONS 
       AND A TOTAL OF         60 INNER ITERATIONS.
    ------------------------------------------------

 NO OUTPUT CONTROL FOR STRESS PERIOD   32   TIME STEP   18
 
 SOLVING FOR HEAD 
                                                   Max.-Head-Change                         Max.-Flux-Residual
  Residual-Control   Outer-Iter.   Inner-Iter.     Column Row Layer    Maximum-Head-Change  Column Row Layer    Maximum-Flux-Residual          L2-NORM 
          0                 1           2             4    7     1      -0.1280143173E+00       4    7    1        -0.6738747403E+01      0.1415378857E+02
          0                 2           2             5    8     1      -0.7763410969E-02       5    8    1        -0.4272368613E+00      0.1027690785E+01
          0                 3           2             4    7     1      -0.1210007610E-01       4    7    1        -0.6322593783E+00      0.1507426006E+01
          0                 4           2             4    7     1      -0.8826507834E-02       5    8    1        -0.4636201128E+00      0.1132688757E+01
          0                 5           2             4    7     1      -0.7339780742E-02       4    7    1        -0.3831724021E+00      0.9381462526E+00
          0                 6           2             4    7     1      -0.6047716326E-02       5    6    1        -0.3157349213E+00      0.7733697831E+00
          0                 7           2             4    7     1      -0.5017551716E-02       4    7    1        -0.2619363591E+00      0.6415968314E+00
          0                 8           2             4    7     1      -0.4178222868E-02       4    7    1        -0.2181199488E+00      0.5342752034E+00
          0                 9           2             4    7     1      -0.3490234132E-02       4    7    1        -0.1822041824E+00      0.4463007433E+00
          0                10           2             4    7     1      -0.2922843851E-02       4    7    1        -0.1525841340E+00      0.3737478532E+00
                                                   Max.-Head-Change                         Max.-Flux-Residual
  Residual-Control   Outer-Iter.   Inner-Iter.     Column Row Layer    Maximum-Head-Change  Column Row Layer    Maximum-Flux-Residual          L2-NORM 
          0                11           2             4    7     1      -0.2452692172E-02       4    7    1        -0.1280403328E+00      0.3136289409E+00
          0                12           2             4    7     1      -0.2061582185E-02       4    7    1        -0.1076227988E+00      0.2636179105E+00
          0                13           2             4    7     1      -0.1735237786E-02       4    7    1        -0.9058634506E-01      0.2218870429E+00
          0                14           2             4    7     1      -0.1462209074E-02       4    7    1        -0.7633315152E-01      0.1869745844E+00
          0                15           2             4    7     1      -0.1233319009E-02       4    7    1        -0.6438417557E-01      0.1577061060E+00
          0                16           2             4    7     1      -0.1041063671E-02       4    7    1        -0.5434767868E-01      0.1331221664E+00
          0                17           2             4    7     1      -0.8793428862E-03       4    7    1        -0.4590520776E-01      0.1124427191E+00
          0                18           2             4    7     1      -0.7431583438E-03       4    7    1        -0.3879583083E-01      0.9502862459E-01
          0                19           2             4    7     1      -0.6283697589E-03       4    7    1        -0.3280340843E-01      0.8035045894E-01
          0                20           2             4    7     1      -0.5315183064E-03       4    7    1        -0.2774737602E-01      0.6796593774E-01
                                                   Max.-Head-Change                         Max.-Flux-Residual
  Residual-Control   Outer-Iter.   Inner-Iter.     Column Row Layer    Maximum-Head-Change  Column Row Layer    Maximum-Flux-Residual          L2-NORM 
          0                21           2             4    7     1      -0.4497346704E-03       4    7    1        -0.2347794383E-01      0.5750815781E-01
          0                22           2             4    7     1      -0.3806208905E-03       5    7    1        -0.1987062438E-01      0.4867197837E-01
          0                23           2             4    7     1      -0.3222229907E-03       4    7    1        -0.1682132812E-01      0.4120292447E-01
          0                24           2             4    7     1      -0.2728380682E-03       4    7    1        -0.1424323510E-01      0.3488817409E-01
          0                25           2             4    7     1      -0.2310648208E-03       4    7    1        -0.1206250523E-01      0.2954655817E-01
          0                26           2             4    7     1      -0.1957098001E-03       4    7    1        -0.1021683210E-01      0.2502566737E-01
          0                27           2             4    7     1      -0.1657779937E-03       4    7    1        -0.8654272427E-02      0.2119824809E-01
          0                28           2             4    7     1      -0.1404372245E-03       4    7    1        -0.7331383197E-02      0.1795789099E-01
          0                29           2             4    7     1      -0.1189851787E-03       4    7    1        -0.6211500844E-02      0.1521478998E-01
          0                30           1             4    7     1      -0.1008161661E-03       4    7    1        -0.5263005872E-02      0.1289149453E-01
          0                31           1             4    7     1      -0.8542443928E-04       4    7    1        -0.4459496404E-02      0.1092333455E-01

    ------------------------------------------------
       NWT REQUIRED           31 OUTER ITERATIONS 
       AND A TOTAL OF         60 INNER ITERATIONS.
    ------------------------------------------------

 NO OUTPUT CONTROL FOR STRESS PERIOD   32   TIME STEP   19
 
 SOLVING FOR HEAD 
                                                   Max.-Head-Change                         Max.-Flux-Residual
  Residual-Control   Outer-Iter.   Inner-Iter.     Column Row Layer    Maximum-Head-Change  Column Row Layer    Maximum-Flux-Residual          L2-NORM 
          0                 1           2             4    7     1      -0.1259183709E+00       4    7    1        -0.6629731479E+01      0.1396558803E+02
          0                 2           2             5    8     1      -0.8015725436E-02       5    8    1        -0.4409193474E+00      0.1061304731E+01
          0                 3           2             4    7     1      -0.1207916481E-01       4    7    1        -0.6311701309E+00      0.1504351861E+01
          0                 4           2             4    7     1      -0.8828643173E-02       5    8    1        -0.4637559600E+00      0.1132999390E+01
          0                 5           2             4    7     1      -0.7339603425E-02       4    7    1        -0.3831615264E+00      0.9381152391E+00
          0                 6           2             4    7     1      -0.6047763929E-02       5    6    1        -0.3157362847E+00      0.7733728819E+00
          0                 7           2             4    7     1      -0.5017571720E-02       4    7    1        -0.2619362502E+00      0.6415965206E+00
          0                 8           2             4    7     1      -0.4178241482E-02       4    7    1        -0.2181199596E+00      0.5342752337E+00
          0                 9           2             4    7     1      -0.3490249484E-02       4    7    1        -0.1822041812E+00      0.4463007396E+00
          0                10           2             4    7     1      -0.2922856727E-02       4    7    1        -0.1525841340E+00      0.3737478530E+00
                                                   Max.-Head-Change                         Max.-Flux-Residual
  Residual-Control   Outer-Iter.   Inner-Iter.     Column Row Layer    Maximum-Head-Change  Column Row Layer    Maximum-Flux-Residual          L2-NORM 
          0                11           2             4    7     1      -0.2452702976E-02       4    7    1        -0.1280403327E+00      0.3136289405E+00
          0                12           2             4    7     1      -0.2061591266E-02       4    7    1        -0.1076227988E+00      0.2636179102E+00
          0                13           2             4    7     1      -0.1735245430E-02       4    7    1        -0.9058634502E-01      0.2218870426E+00
          0                14           2             4    7     1      -0.1462215514E-02       4    7    1        -0.7633315147E-01      0.1869745841E+00
          0                15           2             4    7     1      -0.1233324442E-02       4    7    1        -0.6438417553E-01      0.1577061058E+00
          0                16           2             4    7     1      -0.1041068257E-02       4    7    1        -0.5434767865E-01      0.1331221662E+00
          0                17           2             4    7     1      -0.8793467591E-03       4    7    1        -0.4590520773E-01      0.1124427190E+00
          0                18           2             4    7     1      -0.7431616175E-03       4    7    1        -0.3879583082E-01      0.9502862445E-01
          0                19           2             4    7     1      -0.6283725263E-03       4    7    1        -0.3280340840E-01      0.8035045880E-01
          0                20           2             4    7     1      -0.5315206478E-03       4    7    1        -0.2774737602E-01      0.6796593766E-01
                                                   Max.-Head-Change                         Max.-Flux-Residual
  Residual-Control   Outer-Iter.   Inner-Iter.     Column Row Layer    Maximum-Head-Change  Column Row Layer    Maximum-Flux-Residual          L2-NORM 
          0                21           2             4    7     1      -0.4497366513E-03       4    7    1        -0.2347794382E-01      0.5750815773E-01
          0                22           2             4    7     1      -0.3806225669E-03       5    7    1        -0.1987062437E-01      0.4867197831E-01
          0                23           2             4    7     1      -0.3222244101E-03       4    7    1        -0.1682132810E-01      0.4120292439E-01
          0                24           2             4    7     1      -0.2728392699E-03       4    7    1        -0.1424323508E-01      0.3488817404E-01
          0                25           2             4    7     1      -0.2310658385E-03       4    7    1        -0.1206250522E-01      0.2954655812E-01
          0                26           2             4    7     1      -0.1957106626E-03       4    7    1        -0.1021683211E-01      0.2502566733E-01
          0                27           2             4    7     1      -0.1657787238E-03       4    7    1        -0.8654272402E-02      0.2119824807E-01
          0                28           2             4    7     1      -0.1404378427E-03       4    7    1        -0.7331383177E-02      0.1795789095E-01
          0                29           2             4    7     1      -0.1189857031E-03       4    7    1        -0.6211500858E-02      0.1521478995E-01
          0                30           1             4    7     1      -0.1008166105E-03       4    7    1        -0.5263005873E-02      0.1289149452E-01
          0                31           1             4    7     1      -0.8542481470E-04       4    7    1        -0.4459496377E-02      0.1092333452E-01

    ------------------------------------------------
       NWT REQUIRED           31 OUTER ITERATIONS 
       AND A TOTAL OF         60 INNER ITERATIONS.
    ------------------------------------------------

 NO OUTPUT CONTROL FOR STRESS PERIOD   32   TIME STEP   20
 
 SOLVING FOR HEAD 
                                                   Max.-Head-Change                         Max.-Flux-Residual
  Residual-Control   Outer-Iter.   Inner-Iter.     Column Row Layer    Maximum-Head-Change  Column Row Layer    Maximum-Flux-Residual          L2-NORM 
          0                 1           2             4    7     1      -0.1238271367E+00       4    7    1        -0.6520842322E+01      0.1378616986E+02
          0                 2           2             5    8     1      -0.8257702591E-02       5    8    1        -0.4540307002E+00      0.1093787881E+01
          0                 3           2             4    7     1      -0.1205830095E-01       4    7    1        -0.6300821311E+00      0.1501360560E+01
          0                 4           2             4    7     1      -0.8830773996E-02       5    8    1        -0.4638861599E+00      0.1133301633E+01
          0                 5           2             4    7     1      -0.7339426748E-02       4    7    1        -0.3831506629E+00      0.9380850631E+00
          0                 6           2             4    7     1      -0.6047811622E-02       5    6    1        -0.3157375941E+00      0.7733758973E+00
          0                 7           2             4    7     1      -0.5017591844E-02       4    7    1        -0.2619361415E+00      0.6415962184E+00
          0                 8           2             4    7     1      -0.4178260190E-02       4    7    1        -0.2181199703E+00      0.5342752633E+00
          0                 9           2             4    7     1      -0.3490264916E-02       4    7    1        -0.1822041801E+00      0.4463007361E+00
          0                10           2             4    7     1      -0.2922869670E-02       4    7    1        -0.1525841340E+00      0.3737478529E+00
                                                   Max.-Head-Change                         Max.-Flux-Residual
  Residual-Control   Outer-Iter.   Inner-Iter.     Column Row Layer    Maximum-Head-Change  Column Row Layer    Maximum-Flux-Residual          L2-NORM 
          0                11           2             4    7     1      -0.2452713835E-02       4    7    1        -0.1280403327E+00      0.3136289401E+00
          0                12           2             4    7     1      -0.2061600393E-02       4    7    1        -0.1076227987E+00      0.2636179099E+00
          0                13           2             4    7     1      -0.1735253112E-02       4    7    1        -0.9058634498E-01      0.2218870424E+00
          0                14           2             4    7     1      -0.1462221988E-02       4    7    1        -0.7633315144E-01      0.1869745839E+00
          0                15           2             4    7     1      -0.1233329902E-02       4    7    1        -0.6438417550E-01      0.1577061057E+00
          0                16           2             4    7     1      -0.1041072866E-02       4    7    1        -0.5434767863E-01      0.1331221661E+00
          0                17           2             4    7     1      -0.8793506526E-03       4    7    1        -0.4590520770E-01      0.1124427189E+00
          0                18           2             4    7     1      -0.7431649076E-03       4    7    1        -0.3879583080E-01      0.9502862436E-01
          0                19           2             4    7     1      -0.6283753089E-03       4    7    1        -0.3280340840E-01      0.8035045873E-01
          0                20           2             4    7     1      -0.5315230008E-03       4    7    1        -0.2774737599E-01      0.6796593758E-01
                                                   Max.-Head-Change                         Max.-Flux-Residual
  Residual-Control   Outer-Iter.   Inner-Iter.     Column Row Layer    Maximum-Head-Change  Column Row Layer    Maximum-Flux-Residual          L2-NORM 
          0                21           2             4    7     1      -0.4497386427E-03       4    7    1        -0.2347794382E-01      0.5750815768E-01
          0                22           2             4    7     1      -0.3806242522E-03       5    7    1        -0.1987062436E-01      0.4867197826E-01
          0                23           2             4    7     1      -0.3222258363E-03       4    7    1        -0.1682132809E-01      0.4120292436E-01
          0                24           2             4    7     1      -0.2728404783E-03       4    7    1        -0.1424323510E-01      0.3488817400E-01
          0                25           2             4    7     1      -0.2310668614E-03       4    7    1        -0.1206250522E-01      0.2954655809E-01
          0                26           2             4    7     1      -0.1957115287E-03       4    7    1        -0.1021683211E-01      0.2502566730E-01
          0                27           2             4    7     1      -0.1657794582E-03       4    7    1        -0.8654272427E-02      0.2119824805E-01
          0                28           2             4    7     1      -0.1404384647E-03       4    7    1        -0.7331383181E-02      0.1795789092E-01
          0                29           2             4    7     1      -0.1189862298E-03       4    7    1        -0.6211500847E-02      0.1521478992E-01
          0                30           1             4    7     1      -0.1008170565E-03       4    7    1        -0.5263005861E-02      0.1289149450E-01
          0                31           1             4    7     1      -0.8542519324E-04       4    7    1        -0.4459496394E-02      0.1092333452E-01

    ------------------------------------------------
       NWT REQUIRED           31 OUTER ITERATIONS 
       AND A TOTAL OF         60 INNER ITERATIONS.
    ------------------------------------------------

 NO OUTPUT CONTROL FOR STRESS PERIOD   32   TIME STEP   21
 
 SOLVING FOR HEAD 
                                                   Max.-Head-Change                         Max.-Flux-Residual
  Residual-Control   Outer-Iter.   Inner-Iter.     Column Row Layer    Maximum-Head-Change  Column Row Layer    Maximum-Flux-Residual          L2-NORM 
          0                 1           2             4    7     1      -0.1217425660E+00       4    7    1        -0.6412190629E+01      0.1361504496E+02
          0                 2           2             5    8     1      -0.8489807562E-02       5    8    1        -0.4666028959E+00      0.1125283658E+01
          0                 3           2             4    7     1      -0.1203750398E-01       4    7    1        -0.6289964856E+00      0.1498449065E+01
          0                 4           2             4    7     1      -0.8832898312E-02       5    8    1        -0.4640110068E+00      0.1133595794E+01
          0                 5           2             4    7     1      -0.7339250871E-02       4    7    1        -0.3831398224E+00      0.9380556901E+00
          0                 6           2             4    7     1      -0.6047859360E-02       5    6    1        -0.3157388525E+00      0.7733788332E+00
          0                 7           2             4    7     1      -0.5017612066E-02       4    7    1        -0.2619360330E+00      0.6415959249E+00
          0                 8           2             4    7     1      -0.4178278974E-02       4    7    1        -0.2181199811E+00      0.5342752927E+00
          0                 9           2             4    7     1      -0.3490280411E-02       4    7    1        -0.1822041789E+00      0.4463007326E+00
          0                10           2             4    7     1      -0.2922882667E-02       4    7    1        -0.1525841341E+00      0.3737478544E+00
                                                   Max.-Head-Change                         Max.-Flux-Residual
  Residual-Control   Outer-Iter.   Inner-Iter.     Column Row Layer    Maximum-Head-Change  Column Row Layer    Maximum-Flux-Residual          L2-NORM 
          0                11           2             4    7     1      -0.2452724739E-02       4    7    1        -0.1280403326E+00      0.3136289405E+00
          0                12           2             4    7     1      -0.2061609558E-02       4    7    1        -0.1076227987E+00      0.2636179103E+00
          0                13           2             4    7     1      -0.1735260827E-02       4    7    1        -0.9058634494E-01      0.2218870428E+00
          0                14           2             4    7     1      -0.1462228489E-02       4    7    1        -0.7633315142E-01      0.1869745842E+00
          0                15           2             4    7     1      -0.1233335385E-02       4    7    1        -0.6438417546E-01      0.1577061059E+00
          0                16           2             4    7     1      -0.1041077494E-02       4    7    1        -0.5434767862E-01      0.1331221663E+00
          0                17           2             4    7     1      -0.8793545618E-03       4    7    1        -0.4590520769E-01      0.1124427191E+00
          0                18           2             4    7     1      -0.7431682116E-03       4    7    1        -0.3879583078E-01      0.9502862450E-01
          0                19           2             4    7     1      -0.6283781024E-03       4    7    1        -0.3280340838E-01      0.8035045887E-01
          0                20           2             4    7     1      -0.5315253638E-03       4    7    1        -0.2774737599E-01      0.6796593770E-01
                                                   Max.-Head-Change                         Max.-Flux-Residual
  Residual-Control   Outer-Iter.   Inner-Iter.     Column Row Layer    Maximum-Head-Change  Column Row Layer    Maximum-Flux-Residual          L2-NORM 
          0                21           2             4    7     1      -0.4497406421E-03       4    7    1        -0.2347794381E-01      0.5750815776E-01
          0                22           2             4    7     1      -0.3806259442E-03       5    7    1        -0.1987062435E-01      0.4867197832E-01
          0                23           2             4    7     1      -0.3222272690E-03       4    7    1        -0.1682132807E-01      0.4120292442E-01
          0                24           2             4    7     1      -0.2728416911E-03       4    7    1        -0.1424323508E-01      0.3488817406E-01
          0                25           2             4    7     1      -0.2310678884E-03       4    7    1        -0.1206250520E-01      0.2954655813E-01
          0                26           2             4    7     1      -0.1957123990E-03       4    7    1        -0.1021683211E-01      0.2502566735E-01
          0                27           2             4    7     1      -0.1657801949E-03       4    7    1        -0.8654272415E-02      0.2119824809E-01
          0                28           2             4    7     1      -0.1404390893E-03       4    7    1        -0.7331383186E-02      0.1795789099E-01
          0                29           2             4    7     1      -0.1189867583E-03       4    7    1        -0.6211500834E-02      0.1521478994E-01
          0                30           1             4    7     1      -0.1008175052E-03       4    7    1        -0.5263005880E-02      0.1289149454E-01
          0                31           1             4    7     1      -0.8542557316E-04       4    7    1        -0.4459496383E-02      0.1092333454E-01

    ------------------------------------------------
       NWT REQUIRED           31 OUTER ITERATIONS 
       AND A TOTAL OF         60 INNER ITERATIONS.
    ------------------------------------------------

 NO OUTPUT CONTROL FOR STRESS PERIOD   32   TIME STEP   22
 
 SOLVING FOR HEAD 
                                                   Max.-Head-Change                         Max.-Flux-Residual
  Residual-Control   Outer-Iter.   Inner-Iter.     Column Row Layer    Maximum-Head-Change  Column Row Layer    Maximum-Flux-Residual          L2-NORM 
          0                 1           2             4    7     1      -0.1196666992E+00       4    7    1        -0.6303892047E+01      0.1345170107E+02
          0                 2           2             5    8     1      -0.8713012563E-02       5    8    1        -0.4786693317E+00      0.1155569953E+01
          0                 3           2             4    7     1      -0.1201679423E-01       4    7    1        -0.6279143506E+00      0.1495613585E+01
          0                 4           2             4    7     1      -0.8835014042E-02       5    8    1        -0.4641309237E+00      0.1133882232E+01
          0                 5           2             4    7     1      -0.7339075963E-02       4    7    1        -0.3831290166E+00      0.9380270884E+00
          0                 6           2             4    7     1      -0.6047907092E-02       5    6    1        -0.3157400625E+00      0.7733816927E+00
          0                 7           2             4    7     1      -0.5017632364E-02       4    7    1        -0.2619359248E+00      0.6415956396E+00
          0                 8           2             4    7     1      -0.4178297813E-02       4    7    1        -0.2181199918E+00      0.5342753217E+00
          0                 9           2             4    7     1      -0.3490295955E-02       4    7    1        -0.1822041777E+00      0.4463007307E+00
          0                10           2             4    7     1      -0.2922895703E-02       4    7    1        -0.1525841341E+00      0.3737478538E+00
                                                   Max.-Head-Change                         Max.-Flux-Residual
  Residual-Control   Outer-Iter.   Inner-Iter.     Column Row Layer    Maximum-Head-Change  Column Row Layer    Maximum-Flux-Residual          L2-NORM 
          0                11           2             4    7     1      -0.2452735676E-02       4    7    1        -0.1280403325E+00      0.3136289403E+00
          0                12           2             4    7     1      -0.2061618751E-02       4    7    1        -0.1076227986E+00      0.2636179101E+00
          0                13           2             4    7     1      -0.1735268565E-02       4    7    1        -0.9058634491E-01      0.2218870426E+00
          0                14           2             4    7     1      -0.1462235010E-02       4    7    1        -0.7633315138E-01      0.1869745841E+00
          0                15           2             4    7     1      -0.1233340885E-02       4    7    1        -0.6438417544E-01      0.1577061058E+00
          0                16           2             4    7     1      -0.1041082136E-02       4    7    1        -0.5434767858E-01      0.1331221662E+00
          0                17           2             4    7     1      -0.8793584832E-03       4    7    1        -0.4590520767E-01      0.1124427190E+00
          0                18           2             4    7     1      -0.7431715255E-03       4    7    1        -0.3879583077E-01      0.9502862444E-01
          0                19           2             4    7     1      -0.6283809042E-03       4    7    1        -0.3280340836E-01      0.8035045879E-01
          0                20           2             4    7     1      -0.5315277342E-03       4    7    1        -0.2774737599E-01      0.6796593764E-01
                                                   Max.-Head-Change                         Max.-Flux-Residual
  Residual-Control   Outer-Iter.   Inner-Iter.     Column Row Layer    Maximum-Head-Change  Column Row Layer    Maximum-Flux-Residual          L2-NORM 
          0                21           2             4    7     1      -0.4497426479E-03       4    7    1        -0.2347794380E-01      0.5750815774E-01
          0                22           2             4    7     1      -0.3806276407E-03       5    7    1        -0.1987062434E-01      0.4867197829E-01
          0                23           2             4    7     1      -0.3222287061E-03       4    7    1        -0.1682132810E-01      0.4120292441E-01
          0                24           2             4    7     1      -0.2728429081E-03       4    7    1        -0.1424323509E-01      0.3488817403E-01
          0                25           2             4    7     1      -0.2310689190E-03       4    7    1        -0.1206250520E-01      0.2954655811E-01
          0                26           2             4    7     1      -0.1957132718E-03       4    7    1        -0.1021683209E-01      0.2502566733E-01
          0                27           2             4    7     1      -0.1657809338E-03       4    7    1        -0.8654272396E-02      0.2119824806E-01
          0                28           2             4    7     1      -0.1404397155E-03       4    7    1        -0.7331383197E-02      0.1795789097E-01
          0                29           2             4    7     1      -0.1189872895E-03       4    7    1        -0.6211500845E-02      0.1521478996E-01
          0                30           1             4    7     1      -0.1008179543E-03       4    7    1        -0.5263005852E-02      0.1289149452E-01
          0                31           1             4    7     1      -0.8542595408E-04       4    7    1        -0.4459496383E-02      0.1092333453E-01

    ------------------------------------------------
       NWT REQUIRED           31 OUTER ITERATIONS 
       AND A TOTAL OF         60 INNER ITERATIONS.
    ------------------------------------------------

 NO OUTPUT CONTROL FOR STRESS PERIOD   32   TIME STEP   23
 
 SOLVING FOR HEAD 
                                                   Max.-Head-Change                         Max.-Flux-Residual
  Residual-Control   Outer-Iter.   Inner-Iter.     Column Row Layer    Maximum-Head-Change  Column Row Layer    Maximum-Flux-Residual          L2-NORM 
          0                 1           2             4    7     1      -0.1176014044E+00       4    7    1        -0.6196052347E+01      0.1329561204E+02
          0                 2           2             5    8     1      -0.8928752925E-02       5    8    1        -0.4902359768E+00      0.1184949482E+01
          0                 3           2             4    7     1      -0.1199621181E-01       4    7    1        -0.6268367839E+00      0.1492852519E+01
          0                 4           2             4    7     1      -0.8837117129E-02       5    8    1        -0.4642539361E+00      0.1134161213E+01
          0                 5           2             4    7     1      -0.7338902396E-02       4    7    1        -0.3831182560E+00      0.9379992295E+00
          0                 6           2             4    7     1      -0.6047954752E-02       5    6    1        -0.3157412269E+00      0.7733844770E+00
          0                 7           2             4    7     1      -0.5017652720E-02       4    7    1        -0.2619358172E+00      0.6415953608E+00
          0                 8           2             4    7     1      -0.4178316690E-02       4    7    1        -0.2181200025E+00      0.5342753492E+00
          0                 9           2             4    7     1      -0.3490311530E-02       4    7    1        -0.1822041766E+00      0.4463007277E+00
          0                10           2             4    7     1      -0.2922908765E-02       4    7    1        -0.1525841342E+00      0.3737478539E+00
                                                   Max.-Head-Change                         Max.-Flux-Residual
  Residual-Control   Outer-Iter.   Inner-Iter.     Column Row Layer    Maximum-Head-Change  Column Row Layer    Maximum-Flux-Residual          L2-NORM 
          0                11           2             4    7     1      -0.2452746635E-02       4    7    1        -0.1280403325E+00      0.3136289401E+00
          0                12           2             4    7     1      -0.2061627963E-02       4    7    1        -0.1076227986E+00      0.2636179100E+00
          0                13           2             4    7     1      -0.1735276319E-02       4    7    1        -0.9058634487E-01      0.2218870425E+00
          0                14           2             4    7     1      -0.1462241543E-02       4    7    1        -0.7633315134E-01      0.1869745840E+00
          0                15           2             4    7     1      -0.1233346396E-02       4    7    1        -0.6438417542E-01      0.1577061057E+00
          0                16           2             4    7     1      -0.1041086788E-02       4    7    1        -0.5434767856E-01      0.1331221661E+00
          0                17           2             4    7     1      -0.8793624125E-03       4    7    1        -0.4590520767E-01      0.1124427189E+00
          0                18           2             4    7     1      -0.7431748465E-03       4    7    1        -0.3879583076E-01      0.9502862439E-01
          0                19           2             4    7     1      -0.6283837121E-03       4    7    1        -0.3280340834E-01      0.8035045876E-01
          0                20           2             4    7     1      -0.5315301092E-03       4    7    1        -0.2774737596E-01      0.6796593761E-01
                                                   Max.-Head-Change                         Max.-Flux-Residual
  Residual-Control   Outer-Iter.   Inner-Iter.     Column Row Layer    Maximum-Head-Change  Column Row Layer    Maximum-Flux-Residual          L2-NORM 
          0                21           2             4    7     1      -0.4497446573E-03       4    7    1        -0.2347794378E-01      0.5750815769E-01
          0                22           2             4    7     1      -0.3806293418E-03       5    7    1        -0.1987062435E-01      0.4867197827E-01
          0                23           2             4    7     1      -0.3222301457E-03       4    7    1        -0.1682132807E-01      0.4120292437E-01
          0                24           2             4    7     1      -0.2728441268E-03       4    7    1        -0.1424323507E-01      0.3488817402E-01
          0                25           2             4    7     1      -0.2310699514E-03       4    7    1        -0.1206250521E-01      0.2954655810E-01
          0                26           2             4    7     1      -0.1957141465E-03       4    7    1        -0.1021683211E-01      0.2502566732E-01
          0                27           2             4    7     1      -0.1657816749E-03       4    7    1        -0.8654272397E-02      0.2119824806E-01
          0                28           2             4    7     1      -0.1404403432E-03       4    7    1        -0.7331383179E-02      0.1795789095E-01
          0                29           2             4    7     1      -0.1189878207E-03       4    7    1        -0.6211500827E-02      0.1521478994E-01
          0                30           1             4    7     1      -0.1008184051E-03       4    7    1        -0.5263005862E-02      0.1289149451E-01
          0                31           1             4    7     1      -0.8542633563E-04       4    7    1        -0.4459496372E-02      0.1092333453E-01

    ------------------------------------------------
       NWT REQUIRED           31 OUTER ITERATIONS 
       AND A TOTAL OF         60 INNER ITERATIONS.
    ------------------------------------------------

 NO OUTPUT CONTROL FOR STRESS PERIOD   32   TIME STEP   24
 
 SOLVING FOR HEAD 
                                                   Max.-Head-Change                         Max.-Flux-Residual
  Residual-Control   Outer-Iter.   Inner-Iter.     Column Row Layer    Maximum-Head-Change  Column Row Layer    Maximum-Flux-Residual          L2-NORM 
          0                 1           2             4    7     1      -0.1155481125E+00       4    7    1        -0.6088753878E+01      0.1314654285E+02
          0                 2           2             5    8     1      -0.9115724174E-02       5    8    1        -0.5002952751E+00      0.1213269247E+01
          0                 3           2             4    7     1      -0.1197568057E-01       4    7    1        -0.6257646085E+00      0.1490159190E+01
          0                 4           2             4    7     1      -0.8839216657E-02       5    8    1        -0.4643457710E+00      0.1134432997E+01
          0                 5           2             4    7     1      -0.7338730461E-02       4    7    1        -0.3831075490E+00      0.9379720837E+00
          0                 6           2             4    7     1      -0.6048003301E-02       5    6    1        -0.3157423482E+00      0.7733871901E+00
          0                 7           2             4    7     1      -0.5017673861E-02       4    7    1        -0.2619357100E+00      0.6415950893E+00
          0                 8           2             4    7     1      -0.4178336214E-02       4    7    1        -0.2181200131E+00      0.5342753762E+00
          0                 9           2             4    7     1      -0.3490327647E-02       4    7    1        -0.1822041755E+00      0.4463007248E+00
          0                10           2             4    7     1      -0.2922922282E-02       4    7    1        -0.1525841342E+00      0.3737478540E+00
                                                   Max.-Head-Change                         Max.-Flux-Residual
  Residual-Control   Outer-Iter.   Inner-Iter.     Column Row Layer    Maximum-Head-Change  Column Row Layer    Maximum-Flux-Residual          L2-NORM 
          0                11           2             4    7     1      -0.2452757975E-02       4    7    1        -0.1280403324E+00      0.3136289400E+00
          0                12           2             4    7     1      -0.2061637496E-02       4    7    1        -0.1076227986E+00      0.2636179099E+00
          0                13           2             4    7     1      -0.1735284341E-02       4    7    1        -0.9058634482E-01      0.2218870424E+00
          0                14           2             4    7     1      -0.1462248304E-02       4    7    1        -0.7633315133E-01      0.1869745839E+00
          0                15           2             4    7     1      -0.1233352099E-02       4    7    1        -0.6438417540E-01      0.1577061057E+00
          0                16           2             4    7     1      -0.1041091602E-02       4    7    1        -0.5434767854E-01      0.1331221661E+00
          0                17           2             4    7     1      -0.8793664781E-03       4    7    1        -0.4590520764E-01      0.1124427189E+00
          0                18           2             4    7     1      -0.7431782824E-03       4    7    1        -0.3879583074E-01      0.9502862436E-01
          0                19           2             4    7     1      -0.6283866178E-03       4    7    1        -0.3280340834E-01      0.8035045873E-01
          0                20           2             4    7     1      -0.5315325664E-03       4    7    1        -0.2774737594E-01      0.6796593759E-01
                                                   Max.-Head-Change                         Max.-Flux-Residual
  Residual-Control   Outer-Iter.   Inner-Iter.     Column Row Layer    Maximum-Head-Change  Column Row Layer    Maximum-Flux-Residual          L2-NORM 
          0                21           2             4    7     1      -0.4497467368E-03       4    7    1        -0.2347794378E-01      0.5750815768E-01
          0                22           2             4    7     1      -0.3806311015E-03       5    7    1        -0.1987062435E-01      0.4867197825E-01
          0                23           2             4    7     1      -0.3222316356E-03       4    7    1        -0.1682132807E-01      0.4120292435E-01
          0                24           2             4    7     1      -0.2728453882E-03       4    7    1        -0.1424323507E-01      0.3488817401E-01
          0                25           2             4    7     1      -0.2310710199E-03       4    7    1        -0.1206250521E-01      0.2954655809E-01
          0                26           2             4    7     1      -0.1957150516E-03       4    7    1        -0.1021683210E-01      0.2502566730E-01
          0                27           2             4    7     1      -0.1657824412E-03       4    7    1        -0.8654272387E-02      0.2119824804E-01
          0                28           2             4    7     1      -0.1404409923E-03       4    7    1        -0.7331383176E-02      0.1795789092E-01
          0                29           2             4    7     1      -0.1189883709E-03       4    7    1        -0.6211500831E-02      0.1521478994E-01
          0                30           1             4    7     1      -0.1008188712E-03       4    7    1        -0.5263005864E-02      0.1289149449E-01
          0                31           1             4    7     1      -0.8542673043E-04       4    7    1        -0.4459496383E-02      0.1092333451E-01

    ------------------------------------------------
       NWT REQUIRED           31 OUTER ITERATIONS 
       AND A TOTAL OF         60 INNER ITERATIONS.
    ------------------------------------------------

 NO OUTPUT CONTROL FOR STRESS PERIOD   32   TIME STEP   25
 
 SOLVING FOR HEAD 
                                                   Max.-Head-Change                         Max.-Flux-Residual
  Residual-Control   Outer-Iter.   Inner-Iter.     Column Row Layer    Maximum-Head-Change  Column Row Layer    Maximum-Flux-Residual          L2-NORM 
          0                 1           2             4    7     1      -0.1135090797E+00       4    7    1        -0.5982093060E+01      0.1300426391E+02
          0                 2           2             5    8     1      -0.9335951734E-02       5    8    1        -0.5122245628E+00      0.1240997717E+01
          0                 3           2             4    7     1      -0.1195536710E-01       4    7    1        -0.6246987903E+00      0.1487537163E+01
          0                 4           2             4    7     1      -0.8841292912E-02       5    8    1        -0.4644644324E+00      0.1134697911E+01
          0                 5           2             4    7     1      -0.7338559628E-02       4    7    1        -0.3830969050E+00      0.9379456271E+00
          0                 6           2             4    7     1      -0.6048050731E-02       5    6    1        -0.3157434284E+00      0.7733898345E+00
          0                 7           2             4    7     1      -0.5017694276E-02       4    7    1        -0.2619356035E+00      0.6415948247E+00
          0                 8           2             4    7     1      -0.4178355114E-02       4    7    1        -0.2181200237E+00      0.5342754025E+00
          0                 9           2             4    7     1      -0.3490343244E-02       4    7    1        -0.1822041743E+00      0.4463007220E+00
          0                10           2             4    7     1      -0.2922935363E-02       4    7    1        -0.1525841343E+00      0.3737478542E+00
                                                   Max.-Head-Change                         Max.-Flux-Residual
  Residual-Control   Outer-Iter.   Inner-Iter.     Column Row Layer    Maximum-Head-Change  Column Row Layer    Maximum-Flux-Residual          L2-NORM 
          0                11           2             4    7     1      -0.2452768950E-02       4    7    1        -0.1280403323E+00      0.3136289399E+00
          0                12           2             4    7     1      -0.2061646720E-02       4    7    1        -0.1076227985E+00      0.2636179098E+00
          0                13           2             4    7     1      -0.1735292106E-02       4    7    1        -0.9058634480E-01      0.2218870424E+00
          0                14           2             4    7     1      -0.1462254847E-02       4    7    1        -0.7633315131E-01      0.1869745839E+00
          0                15           2             4    7     1      -0.1233357617E-02       4    7    1        -0.6438417538E-01      0.1577061056E+00
          0                16           2             4    7     1      -0.1041096260E-02       4    7    1        -0.5434767853E-01      0.1331221661E+00
          0                17           2             4    7     1      -0.8793704129E-03       4    7    1        -0.4590520763E-01      0.1124427189E+00
          0                18           2             4    7     1      -0.7431816079E-03       4    7    1        -0.3879583073E-01      0.9502862435E-01
          0                19           2             4    7     1      -0.6283894293E-03       4    7    1        -0.3280340833E-01      0.8035045871E-01
          0                20           2             4    7     1      -0.5315349451E-03       4    7    1        -0.2774737595E-01      0.6796593757E-01
                                                   Max.-Head-Change                         Max.-Flux-Residual
  Residual-Control   Outer-Iter.   Inner-Iter.     Column Row Layer    Maximum-Head-Change  Column Row Layer    Maximum-Flux-Residual          L2-NORM 
          0                21           2             4    7     1      -0.4497487493E-03       4    7    1        -0.2347794377E-01      0.5750815766E-01
          0                22           2             4    7     1      -0.3806328042E-03       5    7    1        -0.1987062434E-01      0.4867197823E-01
          0                23           2             4    7     1      -0.3222330777E-03       4    7    1        -0.1682132806E-01      0.4120292434E-01
          0                24           2             4    7     1      -0.2728466089E-03       4    7    1        -0.1424323505E-01      0.3488817398E-01
          0                25           2             4    7     1      -0.2310720541E-03       4    7    1        -0.1206250521E-01      0.2954655809E-01
          0                26           2             4    7     1      -0.1957159268E-03       4    7    1        -0.1021683209E-01      0.2502566731E-01
          0                27           2             4    7     1      -0.1657831833E-03       4    7    1        -0.8654272399E-02      0.2119824804E-01
          0                28           2             4    7     1      -0.1404416210E-03       4    7    1        -0.7331383172E-02      0.1795789094E-01
          0                29           2             4    7     1      -0.1189889035E-03       4    7    1        -0.6211500815E-02      0.1521478992E-01
          0                30           1             4    7     1      -0.1008193219E-03       4    7    1        -0.5263005839E-02      0.1289149449E-01
          0                31           1             4    7     1      -0.8542711297E-04       4    7    1        -0.4459496379E-02      0.1092333451E-01

    ------------------------------------------------
       NWT REQUIRED           31 OUTER ITERATIONS 
       AND A TOTAL OF         60 INNER ITERATIONS.
    ------------------------------------------------

 NO OUTPUT CONTROL FOR STRESS PERIOD   32   TIME STEP   26
 
 SOLVING FOR HEAD 
                                                   Max.-Head-Change                         Max.-Flux-Residual
  Residual-Control   Outer-Iter.   Inner-Iter.     Column Row Layer    Maximum-Head-Change  Column Row Layer    Maximum-Flux-Residual          L2-NORM 
          0                 1           2             4    7     1      -0.1114847139E+00       4    7    1        -0.5876142513E+01      0.1286830011E+02
          0                 2           2             5    8     1      -0.9529012412E-02       5    8    1        -0.5226396233E+00      0.1267740400E+01
          0                 3           2             4    7     1      -0.1193517263E-01       4    7    1        -0.6236400535E+00      0.1484979479E+01
          0                 4           2             4    7     1      -0.8843357250E-02       5    8    1        -0.4645679907E+00      0.1134956158E+01
          0                 5           2             4    7     1      -0.7338389974E-02       4    7    1        -0.3830863315E+00      0.9379198334E+00
          0                 6           2             4    7     1      -0.6048098031E-02       5    6    1        -0.3157444696E+00      0.7733924128E+00
          0                 7           2             4    7     1      -0.5017714695E-02       4    7    1        -0.2619354978E+00      0.6415945669E+00
          0                 8           2             4    7     1      -0.4178374006E-02       4    7    1        -0.2181200342E+00      0.5342754282E+00
          0                 9           2             4    7     1      -0.3490358836E-02       4    7    1        -0.1822041732E+00      0.4463007194E+00
          0                10           2             4    7     1      -0.2922948438E-02       4    7    1        -0.1525841343E+00      0.3737478544E+00
                                                   Max.-Head-Change                         Max.-Flux-Residual
  Residual-Control   Outer-Iter.   Inner-Iter.     Column Row Layer    Maximum-Head-Change  Column Row Layer    Maximum-Flux-Residual          L2-NORM 
          0                11           2             4    7     1      -0.2452779921E-02       4    7    1        -0.1280403323E+00      0.3136289398E+00
          0                12           2             4    7     1      -0.2061655942E-02       4    7    1        -0.1076227985E+00      0.2636179098E+00
          0                13           2             4    7     1      -0.1735299868E-02       4    7    1        -0.9058634478E-01      0.2218870423E+00
          0                14           2             4    7     1      -0.1462261387E-02       4    7    1        -0.7633315128E-01      0.1869745839E+00
          0                15           2             4    7     1      -0.1233363134E-02       4    7    1        -0.6438417535E-01      0.1577061056E+00
          0                16           2             4    7     1      -0.1041100917E-02       4    7    1        -0.5434767851E-01      0.1331221660E+00
          0                17           2             4    7     1      -0.8793743463E-03       4    7    1        -0.4590520761E-01      0.1124427189E+00
          0                18           2             4    7     1      -0.7431849316E-03       4    7    1        -0.3879583071E-01      0.9502862432E-01
          0                19           2             4    7     1      -0.6283922403E-03       4    7    1        -0.3280340833E-01      0.8035045871E-01
          0                20           2             4    7     1      -0.5315373224E-03       4    7    1        -0.2774737594E-01      0.6796593756E-01
                                                   Max.-Head-Change                         Max.-Flux-Residual
  Residual-Control   Outer-Iter.   Inner-Iter.     Column Row Layer    Maximum-Head-Change  Column Row Layer    Maximum-Flux-Residual          L2-NORM 
          0                21           2             4    7     1      -0.4497507612E-03       4    7    1        -0.2347794378E-01      0.5750815766E-01
          0                22           2             4    7     1      -0.3806345068E-03       5    7    1        -0.1987062436E-01      0.4867197823E-01
          0                23           2             4    7     1      -0.3222345188E-03       4    7    1        -0.1682132806E-01      0.4120292434E-01
          0                24           2             4    7     1      -0.2728478297E-03       4    7    1        -0.1424323506E-01      0.3488817400E-01
          0                25           2             4    7     1      -0.2310730876E-03       4    7    1        -0.1206250519E-01      0.2954655809E-01
          0                26           2             4    7     1      -0.1957168023E-03       4    7    1        -0.1021683208E-01      0.2502566730E-01
          0                27           2             4    7     1      -0.1657839245E-03       4    7    1        -0.8654272386E-02      0.2119824804E-01
          0                28           2             4    7     1      -0.1404422493E-03       4    7    1        -0.7331383184E-02      0.1795789093E-01
          0                29           2             4    7     1      -0.1189894355E-03       4    7    1        -0.6211500820E-02      0.1521478993E-01
          0                30           1             4    7     1      -0.1008197731E-03       4    7    1        -0.5263005859E-02      0.1289149452E-01
          0                31           1             4    7     1      -0.8542749514E-04       4    7    1        -0.4459496388E-02      0.1092333452E-01

    ------------------------------------------------
       NWT REQUIRED           31 OUTER ITERATIONS 
       AND A TOTAL OF         60 INNER ITERATIONS.
    ------------------------------------------------

 NO OUTPUT CONTROL FOR STRESS PERIOD   32   TIME STEP   27
 
 SOLVING FOR HEAD 
                                                   Max.-Head-Change                         Max.-Flux-Residual
  Residual-Control   Outer-Iter.   Inner-Iter.     Column Row Layer    Maximum-Head-Change  Column Row Layer    Maximum-Flux-Residual          L2-NORM 
          0                 1           2             4    7     1      -0.1094766837E+00       4    7    1        -0.5770981498E+01      0.1273834791E+02
          0                 2           2             5    8     1      -0.9715071897E-02       5    8    1        -0.5326697280E+00      0.1293678946E+01
          0                 3           2             4    7     1      -0.1191514149E-01       4    7    1        -0.6225891916E+00      0.1482484893E+01
          0                 4           2             4    7     1      -0.8845405205E-02       5    8    1        -0.4646677391E+00      0.1135207995E+01
          0                 5           2             4    7     1      -0.7338221917E-02       4    7    1        -0.3830758363E+00      0.9378946785E+00
          0                 6           2             4    7     1      -0.6048145137E-02       5    6    1        -0.3157454741E+00      0.7733949273E+00
          0                 7           2             4    7     1      -0.5017735105E-02       4    7    1        -0.2619353928E+00      0.6415943155E+00
          0                 8           2             4    7     1      -0.4178392875E-02       4    7    1        -0.2181200446E+00      0.5342754534E+00
          0                 9           2             4    7     1      -0.3490374411E-02       4    7    1        -0.1822041721E+00      0.4463007169E+00
          0                10           2             4    7     1      -0.2922961499E-02       4    7    1        -0.1525841344E+00      0.3737478547E+00
                                                   Max.-Head-Change                         Max.-Flux-Residual
  Residual-Control   Outer-Iter.   Inner-Iter.     Column Row Layer    Maximum-Head-Change  Column Row Layer    Maximum-Flux-Residual          L2-NORM 
          0                11           2             4    7     1      -0.2452790880E-02       4    7    1        -0.1280403323E+00      0.3136289398E+00
          0                12           2             4    7     1      -0.2061665153E-02       4    7    1        -0.1076227985E+00      0.2636179099E+00
          0                13           2             4    7     1      -0.1735307621E-02       4    7    1        -0.9058634475E-01      0.2218870424E+00
          0                14           2             4    7     1      -0.1462267921E-02       4    7    1        -0.7633315126E-01      0.1869745839E+00
          0                15           2             4    7     1      -0.1233368645E-02       4    7    1        -0.6438417534E-01      0.1577061056E+00
          0                16           2             4    7     1      -0.1041105568E-02       4    7    1        -0.5434767849E-01      0.1331221661E+00
          0                17           2             4    7     1      -0.8793782752E-03       4    7    1        -0.4590520761E-01      0.1124427189E+00
          0                18           2             4    7     1      -0.7431882527E-03       4    7    1        -0.3879583072E-01      0.9502862433E-01
          0                19           2             4    7     1      -0.6283950475E-03       4    7    1        -0.3280340831E-01      0.8035045871E-01
          0                20           2             4    7     1      -0.5315396975E-03       4    7    1        -0.2774737593E-01      0.6796593758E-01
                                                   Max.-Head-Change                         Max.-Flux-Residual
  Residual-Control   Outer-Iter.   Inner-Iter.     Column Row Layer    Maximum-Head-Change  Column Row Layer    Maximum-Flux-Residual          L2-NORM 
          0                21           2             4    7     1      -0.4497527699E-03       4    7    1        -0.2347794374E-01      0.5750815765E-01
          0                22           2             4    7     1      -0.3806362074E-03       5    7    1        -0.1987062436E-01      0.4867197825E-01
          0                23           2             4    7     1      -0.3222359587E-03       4    7    1        -0.1682132806E-01      0.4120292437E-01
          0                24           2             4    7     1      -0.2728490485E-03       4    7    1        -0.1424323505E-01      0.3488817403E-01
          0                25           2             4    7     1      -0.2310741199E-03       4    7    1        -0.1206250520E-01      0.2954655809E-01
          0                26           2             4    7     1      -0.1957176767E-03       4    7    1        -0.1021683209E-01      0.2502566734E-01
          0                27           2             4    7     1      -0.1657846654E-03       4    7    1        -0.8654272394E-02      0.2119824808E-01
          0                28           2             4    7     1      -0.1404428765E-03       4    7    1        -0.7331383171E-02      0.1795789116E-01
          0                29           2             4    7     1      -0.1189899670E-03       4    7    1        -0.6211500825E-02      0.1521478993E-01
          0                30           1             4    7     1      -0.1008202240E-03       4    7    1        -0.5263005873E-02      0.1289149452E-01
          0                31           1             4    7     1      -0.8542787669E-04       4    7    1        -0.4459496372E-02      0.1092333453E-01

    ------------------------------------------------
       NWT REQUIRED           31 OUTER ITERATIONS 
       AND A TOTAL OF         60 INNER ITERATIONS.
    ------------------------------------------------

 NO OUTPUT CONTROL FOR STRESS PERIOD   32   TIME STEP   28
 
 SOLVING FOR HEAD 
                                                   Max.-Head-Change                         Max.-Flux-Residual
  Residual-Control   Outer-Iter.   Inner-Iter.     Column Row Layer    Maximum-Head-Change  Column Row Layer    Maximum-Flux-Residual          L2-NORM 
          0                 1           2             4    7     1      -0.1074858551E+00       4    7    1        -0.5666660505E+01      0.1261409417E+02
          0                 2           2             5    8     1      -0.9894190119E-02       5    8    1        -0.5423375525E+00      0.1318822056E+01
          0                 3           2             4    7     1      -0.1189315433E-01       4    7    1        -0.6213925444E+00      0.1480050277E+01
          0                 4           2             4    7     1      -0.8847836305E-02       5    8    1        -0.4647639007E+00      0.1135453613E+01
          0                 5           2             4    7     1      -0.7338169198E-02       4    7    1        -0.3830638830E+00      0.9378701435E+00
          0                 6           2             4    7     1      -0.6048307440E-02       5    6    1        -0.3157464437E+00      0.7733973811E+00
          0                 7           2             4    7     1      -0.5017849060E-02       4    7    1        -0.2619352731E+00      0.6415940712E+00
          0                 8           2             4    7     1      -0.4178489844E-02       4    7    1        -0.2181200565E+00      0.5342754786E+00
          0                 9           2             4    7     1      -0.3490455205E-02       4    7    1        -0.1822041709E+00      0.4463007151E+00
          0                10           2             4    7     1      -0.2923029180E-02       4    7    1        -0.1525841345E+00      0.3737478555E+00
                                                   Max.-Head-Change                         Max.-Flux-Residual
  Residual-Control   Outer-Iter.   Inner-Iter.     Column Row Layer    Maximum-Head-Change  Column Row Layer    Maximum-Flux-Residual          L2-NORM 
          0                11           2             4    7     1      -0.2452847671E-02       4    7    1        -0.1280403322E+00      0.3136289402E+00
          0                12           2             4    7     1      -0.2061712889E-02       4    7    1        -0.1076227984E+00      0.2636179102E+00
          0                13           2             4    7     1      -0.1735347801E-02       4    7    1        -0.9058634475E-01      0.2218870427E+00
          0                14           2             4    7     1      -0.1462301778E-02       4    7    1        -0.7633315124E-01      0.1869745841E+00
          0                15           2             4    7     1      -0.1233397202E-02       4    7    1        -0.6438417533E-01      0.1577061058E+00
          0                16           2             4    7     1      -0.1041129674E-02       4    7    1        -0.5434767847E-01      0.1331221662E+00
          0                17           2             4    7     1      -0.8793986367E-03       4    7    1        -0.4590520760E-01      0.1124427190E+00
          0                18           2             4    7     1      -0.7432054602E-03       4    7    1        -0.3879583070E-01      0.9502862446E-01
          0                19           2             4    7     1      -0.6284095975E-03       4    7    1        -0.3280340830E-01      0.8035045884E-01
          0                20           2             4    7     1      -0.5315520050E-03       4    7    1        -0.2774737593E-01      0.6796593766E-01
                                                   Max.-Head-Change                         Max.-Flux-Residual
  Residual-Control   Outer-Iter.   Inner-Iter.     Column Row Layer    Maximum-Head-Change  Column Row Layer    Maximum-Flux-Residual          L2-NORM 
          0                21           2             4    7     1      -0.4497631837E-03       4    7    1        -0.2347794374E-01      0.5750815774E-01
          0                22           2             4    7     1      -0.3806450208E-03       5    7    1        -0.1987062436E-01      0.4867197831E-01
          0                23           2             4    7     1      -0.3222434199E-03       4    7    1        -0.1682132806E-01      0.4120292441E-01
          0                24           2             4    7     1      -0.2728553663E-03       4    7    1        -0.1424323504E-01      0.3488817404E-01
          0                25           2             4    7     1      -0.2310794700E-03       4    7    1        -0.1206250518E-01      0.2954655813E-01
          0                26           2             4    7     1      -0.1957222086E-03       4    7    1        -0.1021683208E-01      0.2502566733E-01
          0                27           2             4    7     1      -0.1657885040E-03       4    7    1        -0.8654272379E-02      0.2119824811E-01
          0                28           2             4    7     1      -0.1404461281E-03       4    7    1        -0.7331383166E-02      0.1795789096E-01
          0                29           2             4    7     1      -0.1189927226E-03       4    7    1        -0.6211500831E-02      0.1521478995E-01
          0                30           1             4    7     1      -0.1008225579E-03       4    7    1        -0.5263005847E-02      0.1289149455E-01
          0                31           1             4    7     1      -0.8542985481E-04       4    7    1        -0.4459496377E-02      0.1092333452E-01

    ------------------------------------------------
       NWT REQUIRED           31 OUTER ITERATIONS 
       AND A TOTAL OF         60 INNER ITERATIONS.
    ------------------------------------------------

 NO OUTPUT CONTROL FOR STRESS PERIOD   32   TIME STEP   29
 
 SOLVING FOR HEAD 
                                                   Max.-Head-Change                         Max.-Flux-Residual
  Residual-Control   Outer-Iter.   Inner-Iter.     Column Row Layer    Maximum-Head-Change  Column Row Layer    Maximum-Flux-Residual          L2-NORM 
          0                 1           2             4    7     1      -0.1055832128E+00       4    7    1        -0.5564524414E+01      0.1249528991E+02
          0                 2           2             5    8     1      -0.1006787113E-01       5    8    1        -0.5516630684E+00      0.1343287494E+01
          0                 3           2             4    7     1      -0.1187650910E-01       4    7    1        -0.6205261978E+00      0.1477675903E+01
          0                 4           2             4    7     1      -0.8849545420E-02       5    8    1        -0.4648566778E+00      0.1135693379E+01
          0                 5           2             4    7     1      -0.7338034817E-02       4    7    1        -0.3830552321E+00      0.9378461933E+00
          0                 6           2             4    7     1      -0.6048351007E-02       5    6    1        -0.3157473801E+00      0.7733997756E+00
          0                 7           2             4    7     1      -0.5017869682E-02       4    7    1        -0.2619351866E+00      0.6415938320E+00
          0                 8           2             4    7     1      -0.4178508575E-02       4    7    1        -0.2181200651E+00      0.5342755028E+00
          0                 9           2             4    7     1      -0.3490470695E-02       4    7    1        -0.1822041700E+00      0.4463007129E+00
          0                10           2             4    7     1      -0.2923042167E-02       4    7    1        -0.1525841345E+00      0.3737478558E+00
                                                   Max.-Head-Change                         Max.-Flux-Residual
  Residual-Control   Outer-Iter.   Inner-Iter.     Column Row Layer    Maximum-Head-Change  Column Row Layer    Maximum-Flux-Residual          L2-NORM 
          0                11           2             4    7     1      -0.2452858568E-02       4    7    1        -0.1280403322E+00      0.3136289403E+00
          0                12           2             4    7     1      -0.2061722049E-02       4    7    1        -0.1076227984E+00      0.2636179103E+00
          0                13           2             4    7     1      -0.1735355510E-02       4    7    1        -0.9058634472E-01      0.2218870427E+00
          0                14           2             4    7     1      -0.1462308274E-02       4    7    1        -0.7633315121E-01      0.1869745842E+00
          0                15           2             4    7     1      -0.1233402681E-02       4    7    1        -0.6438417530E-01      0.1577061059E+00
          0                16           2             4    7     1      -0.1041134299E-02       4    7    1        -0.5434767846E-01      0.1331221663E+00
          0                17           2             4    7     1      -0.8794025435E-03       4    7    1        -0.4590520759E-01      0.1124427191E+00
          0                18           2             4    7     1      -0.7432087621E-03       4    7    1        -0.3879583069E-01      0.9502862448E-01
          0                19           2             4    7     1      -0.6284123890E-03       4    7    1        -0.3280340829E-01      0.8035045890E-01
          0                20           2             4    7     1      -0.5315543664E-03       4    7    1        -0.2774737593E-01      0.6796593772E-01
                                                   Max.-Head-Change                         Max.-Flux-Residual
  Residual-Control   Outer-Iter.   Inner-Iter.     Column Row Layer    Maximum-Head-Change  Column Row Layer    Maximum-Flux-Residual          L2-NORM 
          0                21           2             4    7     1      -0.4497651817E-03       4    7    1        -0.2347794374E-01      0.5750815777E-01
          0                22           2             4    7     1      -0.3806467120E-03       5    7    1        -0.1987062437E-01      0.4867197831E-01
          0                23           2             4    7     1      -0.3222448509E-03       4    7    1        -0.1682132803E-01      0.4120292442E-01
          0                24           2             4    7     1      -0.2728565787E-03       4    7    1        -0.1424323505E-01      0.3488817416E-01
          0                25           2             4    7     1      -0.2310804966E-03       4    7    1        -0.1206250518E-01      0.2954655824E-01
          0                26           2             4    7     1      -0.1957230779E-03       4    7    1        -0.1021683207E-01      0.2502566734E-01
          0                27           2             4    7     1      -0.1657892406E-03       4    7    1        -0.8654272382E-02      0.2119824808E-01
          0                28           2             4    7     1      -0.1404467520E-03       4    7    1        -0.7331383163E-02      0.1795789096E-01
          0                29           2             4    7     1      -0.1189932512E-03       4    7    1        -0.6211500830E-02      0.1521478995E-01
          0                30           1             4    7     1      -0.1008230058E-03       4    7    1        -0.5263005853E-02      0.1289149477E-01
          0                31           1             4    7     1      -0.8543023448E-04       4    7    1        -0.4459496387E-02      0.1092333477E-01

    ------------------------------------------------
       NWT REQUIRED           31 OUTER ITERATIONS 
       AND A TOTAL OF         60 INNER ITERATIONS.
    ------------------------------------------------

 NO OUTPUT CONTROL FOR STRESS PERIOD   32   TIME STEP   30



 STREAM LISTING     PERIOD     32   STEP       30

 LAYER ROW COL. STREAM  RCH.  FLOW INTO     FLOW TO   FLOW OUT OF   OVRLND.     DIRECT     STREAM       STREAM     STREAM     STREAM   STREAMBED  STREAMBED
                SEG.NO.  NO.  STRM. RCH.    AQUIFER    STRM. RCH.    RUNOFF     PRECIP       ET          HEAD       DEPTH      WIDTH   CONDCTNC.   GRADIENT

   1    1    1     1     1    1.9000E+01  2.1427E-01   1.8786E+01  0.000E+00  0.000E+00  0.000E+00  1.09413E+03  1.082E+00  1.166E+01  5.249E-02  1.361E+00
   1    2    2     1     2    1.8786E+01  3.3054E-01   1.8455E+01  0.000E+00  0.000E+00  0.000E+00  1.08914E+03  1.077E+00  1.158E+01  8.107E-02  1.359E+00
   1    3    3     1     3    1.8455E+01  2.8064E-01   1.8175E+01  0.000E+00  0.000E+00  0.000E+00  1.08349E+03  1.072E+00  1.149E+01  6.892E-02  1.357E+00
   1    3    4     1     4    1.8175E+01  2.5740E-01   1.7917E+01  0.000E+00  0.000E+00  0.000E+00  1.07848E+03  1.068E+00  1.140E+01  6.328E-02  1.356E+00
   1    4    5     2     1    1.5917E+01  3.0542E-01   1.5612E+01  0.000E+00  0.000E+00  0.000E+00  1.07285E+03  9.157E-01  1.200E+01  7.800E-02  1.305E+00
   1    5    6     2     2    1.5612E+01  2.3438E-01   1.5377E+01  0.000E+00  0.000E+00  0.000E+00  1.06742E+03  9.063E-01  1.200E+01  6.000E-02  1.302E+00
   1    6    6     2     3    1.5377E+01  2.3388E-01   1.5143E+01  0.000E+00  0.000E+00  0.000E+00  1.06269E+03  8.980E-01  1.200E+01  6.000E-02  1.299E+00
   1    7    6     2     4    1.5143E+01  2.3338E-01   1.4910E+01  0.000E+00  0.000E+00  0.000E+00  1.05797E+03  8.897E-01  1.200E+01  6.000E-02  1.297E+00
   1    8    6     2     5    1.4910E+01  2.3289E-01   1.4677E+01  0.000E+00  0.000E+00  0.000E+00  1.05324E+03  8.814E-01  1.200E+01  6.000E-02  1.294E+00
   1    3    5     3     1    2.0000E+00  2.8252E-01   1.7175E+00  0.000E+00  0.000E+00  0.000E+00  1.07555E+03  1.909E+00  9.636E+00  7.227E-02  1.955E+00
   1    3    6     3     2    1.7175E+00  2.4905E-01   1.4684E+00  0.000E+00  0.000E+00  0.000E+00  1.07264E+03  1.727E+00  8.909E+00  6.682E-02  1.864E+00
   1    3    7     3     3    1.4684E+00  1.9718E-01   1.2712E+00  0.000E+00  0.000E+00  0.000E+00  1.06987E+03  1.555E+00  8.218E+00  5.547E-02  1.777E+00
   1    4    8     3     4    1.2712E+00  2.2567E-01   1.0456E+00  0.000E+00  0.000E+00  0.000E+00  1.06682E+03  1.364E+00  7.455E+00  6.709E-02  1.682E+00
   1    5    8     3     5    1.0456E+00  1.5790E-01   8.8768E-01  0.000E+00  0.000E+00  0.000E+00  1.06362E+03  1.164E+00  6.655E+00  4.991E-02  1.582E+00
   1    6    8     3     6    8.8768E-01  5.5980E-02   8.3170E-01  0.000E+00  0.000E+00  0.000E+00  1.06158E+03  1.036E+00  6.145E+00  1.844E-02  1.518E+00
   1    5   10     4     1    1.0000E+01  9.0919E-02   9.9091E+00  0.000E+00  0.000E+00  0.000E+00  1.07836E+03  6.368E-01  1.000E+01  2.500E-02  1.212E+00
   1    5    9     4     2    9.9091E+00  1.8158E-01   9.7275E+00  0.000E+00  0.000E+00  0.000E+00  1.07154E+03  6.315E-01  1.000E+01  5.000E-02  1.211E+00
   1    6    8     4     3    9.7275E+00  1.2689E-01   9.6006E+00  0.000E+00  0.000E+00  0.000E+00  1.06381E+03  6.256E-01  1.000E+01  3.500E-02  1.209E+00
   1    6    8     5     1    1.0432E+01  2.2686E-01   1.0205E+01  0.000E+00  0.000E+00  0.000E+00  1.05868E+03  6.790E-01  1.542E+01  6.166E-02  1.226E+00
   1    7    7     5     2    1.0205E+01  2.7894E-01   9.9265E+00  0.000E+00  0.000E+00  0.000E+00  1.05417E+03  6.732E-01  1.519E+01  7.594E-02  1.224E+00
   1    8    7     5     3    9.9265E+00  1.9221E-01   9.7343E+00  0.000E+00  0.000E+00  0.000E+00  1.04992E+03  6.676E-01  1.497E+01  5.241E-02  1.223E+00
   1    8    6     5     4    9.7343E+00  1.3577E-01   9.5985E+00  0.000E+00  0.000E+00  0.000E+00  1.04691E+03  6.637E-01  1.482E+01  3.706E-02  1.221E+00
   1    9    6     6     1    2.4276E+01  2.5176E-01   2.4024E+01  0.000E+00  0.000E+00  0.000E+00  1.04392E+03  1.196E+00  1.200E+01  6.000E-02  1.399E+00
   1   10    7     6     2    2.4024E+01  2.5131E-01   2.3773E+01  0.000E+00  0.000E+00  0.000E+00  1.03937E+03  1.188E+00  1.200E+01  6.000E-02  1.396E+00
   1   11    7     6     3    2.3773E+01  2.5086E-01   2.3522E+01  0.000E+00  0.000E+00  0.000E+00  1.03482E+03  1.181E+00  1.200E+01  6.000E-02  1.394E+00
   1   12    7     6     4    2.3522E+01  2.5041E-01   2.3271E+01  0.000E+00  0.000E+00  0.000E+00  1.03026E+03  1.173E+00  1.200E+01  6.000E-02  1.391E+00
   1   13    7     6     5    2.3271E+01  6.5955E-03   2.3265E+01  0.000E+00  0.000E+00  0.000E+00  1.02708E+03  1.170E+00  1.200E+01  2.400E-02  9.160E-02
   1   14    9     7     1    1.5000E+02  1.3498E+00   1.4865E+02  0.000E+00  0.000E+00  0.000E+00  1.03987E+03  2.288E+00  5.529E+01  5.593E-01  8.045E-01
   1   13    8     7     2    1.4865E+02  1.9090E+00   1.4674E+02  0.000E+00  0.000E+00  0.000E+00  1.03478E+03  2.279E+00  5.526E+01  6.148E-01  1.035E+00
   1   13    7     7     3    1.4674E+02  1.6111E+00   1.4513E+02  0.000E+00  0.000E+00  0.000E+00  1.02969E+03  2.270E+00  5.521E+01  5.584E-01  9.617E-01
   1   13    6     8     1    1.6839E+02  1.0509E+00   1.6734E+02  0.000E+00  0.000E+00  0.000E+00  1.02481E+03  2.938E+00  4.260E+01  4.342E-01  8.068E-01
   1   13    5     8     2    1.6734E+02  2.9517E-01   1.6705E+02  0.000E+00  0.000E+00  0.000E+00  1.01856E+03  2.934E+00  4.254E+01  4.335E-01  2.270E-01
   1   13    4     8     3    1.6705E+02 -2.0398E+00   1.6909E+02  0.000E+00  0.000E+00  0.000E+00  1.01231E+03  2.940E+00  4.262E+01  4.344E+00 -1.565E-01
   1   13    3     8     4    1.6909E+02 -3.4529E+00   1.7254E+02  0.000E+00  0.000E+00  0.000E+00  1.00608E+03  2.958E+00  4.288E+01  4.370E+00 -2.634E-01
   1   13    2     8     5    1.7254E+02 -2.5293E+00   1.7507E+02  0.000E+00  0.000E+00  0.000E+00  9.99852E+02  2.977E+00  4.316E+01  4.399E+00 -1.917E-01
   1   13    1     8     6    1.7507E+02 -1.9707E+00   1.7704E+02  0.000E+00  0.000E+00  0.000E+00  9.94866E+02  2.991E+00  4.337E+01  2.652E+00 -2.477E-01





UNSATURATED ZONE PACKAGE VOLUMETRIC BUDGET FOR  TIME STEP    30 STRESS PERIOD   32
  ------------------------------------------------------------------------------



     CUMULATIVE VOLUMES      L**3       RATES FOR THIS TIME STEP      L**3/T
     ------------------                 ------------------------

           IN:                                      IN:
           ---                                      ---
        INFILTRATION =  1614178532.3792          INFILTRATION =          91.4654

          OUT:                                     OUT:
          ----                                     ----
              UZF ET =  1307671838.0074                UZF ET =          64.0822
        UZF RECHARGE =   148006097.1986          UZF RECHARGE =           0.0009

            IN - OUT =   158500597.1731              IN - OUT =          27.3824

          STORAGE:                                 STORAGE:
          --------                                 --------
      STORAGE CHANGE =   158502101.5740        STORAGE CHANGE =          27.3824

 PERCENT DISCREPANCY IS DIFFERENCE BETWEEN IN-OUT MINUS CHANGE IN STORAGE
 DIVIDED BY THE AVERAGE OF IN AND OUT TIMES 100

 PERCENT DISCREPANCY =          -0.00     PERCENT DISCREPANCY =           0.00






1
  VOLUMETRIC BUDGET FOR AGRICULTURAL FIELDS AT TIME STEP   30, STRESS PERIOD  32
  ------------------------------------------------------------------------------

     CUMULATIVE VOLUMES      L**3       RATES FOR THIS TIME STEP      L**3/T
     ------------------                 ------------------------

           IN:                                      IN:
           ---                                      ---
               AG WELLS  =  1254760576.0000                 AG WELLS  =          87.0579
      DIVERSION SEGMENTS =           0.0000        DIVERSION SEGMENTS =           0.0000
           GW IRRIGATION =           0.0000             GW IRRIGATION =           0.0000
           SW IRRIGATION =           0.0000             SW IRRIGATION =           0.0000
        SYSTEM LOSSES GW =           0.0000          SYSTEM LOSSES GW =           0.0000
        SYSTEM LOSSES SW =           0.0000          SYSTEM LOSSES SW =           0.0000

                TOTAL IN =  1254760576.0000                  TOTAL IN =          87.0579

          OUT:                                     OUT:
          ----                                     ----
               AG WELLS  =           0.0000                 AG WELLS  =           0.0000
      DIVERSION SEGMENTS =           0.0000        DIVERSION SEGMENTS =           0.0000
           GW IRRIGATION =  1254760576.0000             GW IRRIGATION =          87.0579
           SW IRRIGATION =           0.0000             SW IRRIGATION =           0.0000
        SYSTEM LOSSES GW =           0.0000          SYSTEM LOSSES GW =           0.0000
        SYSTEM LOSSES SW =           0.0000          SYSTEM LOSSES SW =           0.0000

               TOTAL OUT =  1254760576.0000                 TOTAL OUT =          87.0579

                IN - OUT =           0.0000                  IN - OUT =           0.0000

     PERCENT DISCREPANCY =           0.00         PERCENT DISCREPANCY =           0.00



1
  VOLUMETRIC BUDGET FOR ENTIRE MODEL AT END OF TIME STEP   30, STRESS PERIOD  32
  ------------------------------------------------------------------------------

     CUMULATIVE VOLUMES      L**3       RATES FOR THIS TIME STEP      L**3/T
     ------------------                 ------------------------

           IN:                                      IN:
           ---                                      ---
             STORAGE     =  1553794816.0000               STORAGE     =          85.1734
       CONSTANT HEAD     =           0.0000         CONSTANT HEAD     =           0.0000
     HEAD DEP BOUNDS     =    23314500.0000       HEAD DEP BOUNDS     =           0.2867
      STREAM LEAKAGE     =  1002899264.0000        STREAM LEAKAGE     =          11.9511
        UZF RECHARGE     =   148006048.0000          UZF RECHARGE     =       8.6119E-04
               GW ET     =           0.0000                 GW ET     =           0.0000
     SURFACE LEAKAGE     =           0.0000       SURFACE LEAKAGE     =           0.0000
           AG WELLS      =           0.0000             AG WELLS      =           0.0000

                TOTAL IN =  2728014848.0000                  TOTAL IN =          97.4120

          OUT:                                     OUT:
          ----                                     ----
             STORAGE     =   589161280.0000               STORAGE     =       6.9692E-02
       CONSTANT HEAD     =           0.0000         CONSTANT HEAD     =           0.0000
     HEAD DEP BOUNDS     =    23911850.0000       HEAD DEP BOUNDS     =           0.2892
      STREAM LEAKAGE     =   842879488.0000        STREAM LEAKAGE     =           9.9927
        UZF RECHARGE     =           0.0000          UZF RECHARGE     =           0.0000
               GW ET     =    17288296.0000                 GW ET     =           0.0000
     SURFACE LEAKAGE     =           0.0000       SURFACE LEAKAGE     =           0.0000
           AG WELLS      =  1254760576.0000             AG WELLS      =          87.0579

               TOTAL OUT =  2728001536.0000                 TOTAL OUT =          97.4094

                IN - OUT =       13312.0000                  IN - OUT =       2.6550E-03

     PERCENT DISCREPANCY =           0.00         PERCENT DISCREPANCY =           0.00






         TIME SUMMARY AT END OF TIME STEP   30 IN STRESS PERIOD   32
                    SECONDS     MINUTES      HOURS       DAYS        YEARS
                    -----------------------------------------------------------
   TIME STEP LENGTH  87667.      1461.1      24.352      1.0147     2.77799E-03
 STRESS PERIOD TIME 2.63000E+06  43833.      730.56      30.440     8.33397E-02
         TOTAL TIME 8.16164E+07 1.36027E+06  22671.      944.63      2.5863    
1
1
                            STRESS PERIOD NO.   33, LENGTH =   2630000.    
                            -----------------------------------------------

                              NUMBER OF TIME STEPS =    30

                               MULTIPLIER FOR DELT =     1.000

                            INITIAL TIME STEP SIZE =   87666.66    

 REUSING NON-PARAMETER GHB CELLS FROM LAST STRESS PERIOD

      2 GHB CELLS

 REUSING STREAM SEGMENT DATA FROM LAST STRESS PERIOD



            AREAL INFILTRATION RATE
 READING ON UNIT   19 WITH FORMAT: (10F4.0)            

            1           2           3           4           5           6           7           8           9          10
 ........................................................................................................................
   1   1.2000E-09   0.000       0.000       0.000       0.000       0.000       0.000       0.000       0.000       0.000    
   2   2.1000E-09  2.0000E-09  8.0000E-10  8.5000E-09   0.000       0.000       0.000       0.000       0.000       0.000    
   3   5.0000E-10  1.1000E-09  8.8000E-09  5.5000E-09   0.000       0.000       0.000       0.000       0.000       0.000    
   4   8.5000E-09  1.1000E-09  1.1000E-09  1.1000E-09  2.0000E-09   0.000       0.000       0.000       0.000       0.000    
   5   8.5000E-09  1.1000E-09  1.1000E-09  1.1000E-09  1.1000E-09   0.000       0.000       0.000       0.000       0.000    
   6   8.5000E-09  5.2000E-09  2.1000E-09  1.1000E-09  1.5000E-09   0.000       0.000       0.000       0.000       0.000    
   7   8.5000E-09  5.2000E-09  2.1000E-09  1.2000E-09  2.0000E-09   0.000       0.000       0.000       0.000       0.000    
   8   5.0000E-10  5.2000E-09  2.1000E-09  1.2000E-09  5.0000E-09   0.000       0.000       0.000       0.000       0.000    
   9   5.0000E-10  5.2000E-09  2.1000E-09  1.2000E-09  5.0000E-09   0.000       0.000       0.000       0.000       0.000    
  10   5.0000E-10  5.2000E-09  2.1000E-09  1.2000E-09  5.8000E-09   0.000       0.000       0.000       0.000       0.000    
  11   1.0000E-10  1.1000E-09  1.1000E-09  1.2000E-09  5.0000E-09   0.000       0.000       0.000       0.000       0.000    
  12   1.1000E-09  1.1000E-09  1.1000E-09  1.1000E-09  2.0000E-09   0.000       0.000       0.000       0.000       0.000    
  13   1.1000E-09  2.2000E-09  2.2000E-09  2.1000E-09  1.0000E-09   0.000       0.000       0.000       0.000       0.000    
  14   2.0000E-10  5.5000E-09  5.5000E-09  5.2000E-09  1.0000E-09   0.000       0.000       0.000       0.000       0.000    
  15    0.000      8.8000E-09  8.8000E-09   0.000       0.000       0.000       0.000       0.000       0.000       0.000    

                  ET RATE =  3.250000E-07

 USING ET EXTINCTION DEPTH FROM PREVIOUS STRESS PERIOD. CURRENT PERIOD IS:      33

 USING EXTINCTION WATER CONTENT FROM PREVIOUS STRESS PERIOD. CURRENT PERIOD IS:      33

 USING AIR ENTRY PRESSURE FROM PREVIOUS STRESS PERIOD. CURRENT PERIOD IS:      33

 USING ROOT PRESSURE HEAD FROM PREVIOUS STRESS PERIOD. CURRENT PERIOD IS:      33

 USING ROOT ACTIVITY FROM PREVIOUS STRESS PERIOD. CURRENT PERIOD IS:      33

 PROCESSING AG STRESS PERIOD DATA

 READING AG STRESS PERIOD DATA

 READING IRRIGATION WELL

 END PROCESSING AG STRESS PERIOD DATA OPTIONS
 
 SOLVING FOR HEAD 
                                                   Max.-Head-Change                         Max.-Flux-Residual
  Residual-Control   Outer-Iter.   Inner-Iter.     Column Row Layer    Maximum-Head-Change  Column Row Layer    Maximum-Flux-Residual          L2-NORM 
          0                 1           2             4    7     1      -0.6775429300E-01       4    7    1        -0.3589473265E+01      0.9574203225E+01
          0                 2           2             4    7     1       0.6590521872E-02       4    7    1         0.3589387751E+00      0.9574090974E+00
          0                 3           2             4    7     1      -0.4487913120E-03       4    7    1        -0.2512580601E-01      0.6701876531E-01
          0                 4           1             4    7     1       0.1785782052E-04       4    7    1         0.1027646523E-02      0.2741070486E-02

    ------------------------------------------------
       NWT REQUIRED            4 OUTER ITERATIONS 
       AND A TOTAL OF          7 INNER ITERATIONS.
    ------------------------------------------------

 NO OUTPUT CONTROL FOR STRESS PERIOD   33   TIME STEP    1
 
 SOLVING FOR HEAD 
                                                   Max.-Head-Change                         Max.-Flux-Residual
  Residual-Control   Outer-Iter.   Inner-Iter.     Column Row Layer    Maximum-Head-Change  Column Row Layer    Maximum-Flux-Residual          L2-NORM 
          0                 1           2             4    7     1      -0.6649098016E-01       4    7    1        -0.3520296882E+01      0.9449461125E+01
          0                 2           2             4    7     1       0.6467641429E-02       4    7    1         0.3520215247E+00      0.9449358072E+00
          0                 3           2             4    7     1      -0.4404235565E-03       4    7    1        -0.2464159462E-01      0.6614562669E-01
          0                 4           1             4    7     1       0.1752486010E-04       4    7    1         0.1007842282E-02      0.2705359525E-02

    ------------------------------------------------
       NWT REQUIRED            4 OUTER ITERATIONS 
       AND A TOTAL OF          7 INNER ITERATIONS.
    ------------------------------------------------

 NO OUTPUT CONTROL FOR STRESS PERIOD   33   TIME STEP    2
 
 SOLVING FOR HEAD 
                                                   Max.-Head-Change                         Max.-Flux-Residual
  Residual-Control   Outer-Iter.   Inner-Iter.     Column Row Layer    Maximum-Head-Change  Column Row Layer    Maximum-Flux-Residual          L2-NORM 
          0                 1           2             4    7     1      -0.6529240320E-01       4    7    1        -0.3454663823E+01      0.9335349605E+01
          0                 2           2             4    7     1       0.6351057788E-02       4    7    1         0.3454585892E+00      0.9335254678E+00
          0                 3           2             4    7     1      -0.4324845916E-03       4    7    1        -0.2418218543E-01      0.6534689406E-01
          0                 4           1             4    7     1       0.1720896102E-04       4    7    1         0.9890524188E-03      0.2672690887E-02

    ------------------------------------------------
       NWT REQUIRED            4 OUTER ITERATIONS 
       AND A TOTAL OF          7 INNER ITERATIONS.
    ------------------------------------------------

 NO OUTPUT CONTROL FOR STRESS PERIOD   33   TIME STEP    3
 
 SOLVING FOR HEAD 
                                                   Max.-Head-Change                         Max.-Flux-Residual
  Residual-Control   Outer-Iter.   Inner-Iter.     Column Row Layer    Maximum-Head-Change  Column Row Layer    Maximum-Flux-Residual          L2-NORM 
          0                 1           2             4    7     1      -0.6415496209E-01       4    7    1        -0.3392380133E+01      0.9230740278E+01
          0                 2           2             4    7     1       0.6240420770E-02       4    7    1         0.3392305737E+00      0.9230652525E+00
          0                 3           2             4    7     1      -0.4249505722E-03       4    7    1        -0.2374622082E-01      0.6461467214E-01
          0                 4           1             4    7     1       0.1690917588E-04       4    7    1         0.9712214562E-03      0.2642746325E-02

    ------------------------------------------------
       NWT REQUIRED            4 OUTER ITERATIONS 
       AND A TOTAL OF          7 INNER ITERATIONS.
    ------------------------------------------------

 NO OUTPUT CONTROL FOR STRESS PERIOD   33   TIME STEP    4
 
 SOLVING FOR HEAD 
                                                   Max.-Head-Change                         Max.-Flux-Residual
  Residual-Control   Outer-Iter.   Inner-Iter.     Column Row Layer    Maximum-Head-Change  Column Row Layer    Maximum-Flux-Residual          L2-NORM 
          0                 1           2             4    7     1      -0.6307573734E-01       4    7    1        -0.3333287992E+01      0.9134625193E+01
          0                 2           2             4    7     1       0.6135446391E-02       4    7    1         0.3333216965E+00      0.9134543860E+00
          0                 3           2             4    7     1      -0.4178021594E-03       4    7    1        -0.2333259604E-01      0.6394190347E-01
          0                 4           1             4    7     1       0.1662473380E-04       4    7    1         0.9543041840E-03      0.2615227648E-02

    ------------------------------------------------
       NWT REQUIRED            4 OUTER ITERATIONS 
       AND A TOTAL OF          7 INNER ITERATIONS.
    ------------------------------------------------

 NO OUTPUT CONTROL FOR STRESS PERIOD   33   TIME STEP    5
 
 SOLVING FOR HEAD 
                                                   Max.-Head-Change                         Max.-Flux-Residual
  Residual-Control   Outer-Iter.   Inner-Iter.     Column Row Layer    Maximum-Head-Change  Column Row Layer    Maximum-Flux-Residual          L2-NORM 
          0                 1           2             4    7     1      -0.6205139638E-01       4    7    1        -0.3277207182E+01      0.9046093856E+01
          0                 2           2             4    7     1       0.6035810492E-02       4    7    1         0.3277139364E+00      0.9046018193E+00
          0                 3           2             4    7     1      -0.4110172797E-03       4    7    1        -0.2294004963E-01      0.6332221923E-01
          0                 4           1             4    7     1       0.1635475728E-04       4    7    1         0.9382490350E-03      0.2589881836E-02

    ------------------------------------------------
       NWT REQUIRED            4 OUTER ITERATIONS 
       AND A TOTAL OF          7 INNER ITERATIONS.
    ------------------------------------------------

 NO OUTPUT CONTROL FOR STRESS PERIOD   33   TIME STEP    6
 
 SOLVING FOR HEAD 
                                                   Max.-Head-Change                         Max.-Flux-Residual
  Residual-Control   Outer-Iter.   Inner-Iter.     Column Row Layer    Maximum-Head-Change  Column Row Layer    Maximum-Flux-Residual          L2-NORM 
          0                 1           2             4    7     1      -0.6107915508E-01       4    7    1        -0.3223986533E+01      0.8964350224E+01
          0                 2           2             4    7     1       0.5941242255E-02       4    7    1         0.3223921771E+00      0.8964279562E+00
          0                 3           2             4    7     1      -0.4045774909E-03       4    7    1        -0.2256752342E-01      0.6275004316E-01
          0                 4           1             4    7     1       0.1609851248E-04       4    7    1         0.9230127114E-03      0.2566484286E-02

    ------------------------------------------------
       NWT REQUIRED            4 OUTER ITERATIONS 
       AND A TOTAL OF          7 INNER ITERATIONS.
    ------------------------------------------------

 NO OUTPUT CONTROL FOR STRESS PERIOD   33   TIME STEP    7
 
 SOLVING FOR HEAD 
                                                   Max.-Head-Change                         Max.-Flux-Residual
  Residual-Control   Outer-Iter.   Inner-Iter.     Column Row Layer    Maximum-Head-Change  Column Row Layer    Maximum-Flux-Residual          L2-NORM 
          0                 1           2             4    7     1      -0.6015621468E-01       4    7    1        -0.3173474477E+01      0.8888683634E+01
          0                 2           2             4    7     1       0.5851469445E-02       4    7    1         0.3173412621E+00      0.8888617422E+00
          0                 3           2             4    7     1      -0.3984642551E-03       4    7    1        -0.2221395647E-01      0.6222040361E-01
          0                 4           1             4    7     1       0.1585526122E-04       4    7    1         0.9085518104E-03      0.2544817901E-02

    ------------------------------------------------
       NWT REQUIRED            4 OUTER ITERATIONS 
       AND A TOTAL OF          7 INNER ITERATIONS.
    ------------------------------------------------

 NO OUTPUT CONTROL FOR STRESS PERIOD   33   TIME STEP    8
 
 SOLVING FOR HEAD 
                                                   Max.-Head-Change                         Max.-Flux-Residual
  Residual-Control   Outer-Iter.   Inner-Iter.     Column Row Layer    Maximum-Head-Change  Column Row Layer    Maximum-Flux-Residual          L2-NORM 
          0                 1           2             4    7     1      -0.5927978353E-01       4    7    1        -0.3125518690E+01      0.8818463407E+01
          0                 2           2             4    7     1       0.5766220519E-02       4    7    1         0.3125459596E+00      0.8818401139E+00
          0                 3           2             4    7     1      -0.3926590812E-03       4    7    1        -0.2187828254E-01      0.6172888467E-01
          0                 4           1             4    7     1       0.1562426840E-04       4    7    1         0.8948227508E-03      0.2524714803E-02

    ------------------------------------------------
       NWT REQUIRED            4 OUTER ITERATIONS 
       AND A TOTAL OF          7 INNER ITERATIONS.
    ------------------------------------------------

 NO OUTPUT CONTROL FOR STRESS PERIOD   33   TIME STEP    9
 
 SOLVING FOR HEAD 
                                                   Max.-Head-Change                         Max.-Flux-Residual
  Residual-Control   Outer-Iter.   Inner-Iter.     Column Row Layer    Maximum-Head-Change  Column Row Layer    Maximum-Flux-Residual          L2-NORM 
          0                 1           2             4    7     1      -0.5844732657E-01       4    7    1        -0.3079981629E+01      0.8753122316E+01
          0                 2           2             4    7     1       0.5685248888E-02       4    7    1         0.3079925159E+00      0.8753063532E+00
          0                 3           2             4    7     1      -0.3871451765E-03       4    7    1        -0.2155953885E-01      0.6127151760E-01
          0                 4           1             4    7     1       0.1540486512E-04       4    7    1         0.8817861171E-03      0.2506008478E-02

    ------------------------------------------------
       NWT REQUIRED            4 OUTER ITERATIONS 
       AND A TOTAL OF          7 INNER ITERATIONS.
    ------------------------------------------------

 NO OUTPUT CONTROL FOR STRESS PERIOD   33   TIME STEP   10
 
 SOLVING FOR HEAD 
                                                   Max.-Head-Change                         Max.-Flux-Residual
  Residual-Control   Outer-Iter.   Inner-Iter.     Column Row Layer    Maximum-Head-Change  Column Row Layer    Maximum-Flux-Residual          L2-NORM 
          0                 1           2             4    7     1      -0.5765643720E-01       4    7    1        -0.3036731850E+01      0.8692161962E+01
          0                 2           2             4    7     1       0.5608320464E-02       4    7    1         0.3036677870E+00      0.8692106309E+00
          0                 3           2             4    7     1      -0.3819066011E-03       4    7    1        -0.2125680534E-01      0.6084481659E-01
          0                 4           1             4    7     1       0.1519641728E-04       4    7    1         0.8694043006E-03      0.2488560817E-02

    ------------------------------------------------
       NWT REQUIRED            4 OUTER ITERATIONS 
       AND A TOTAL OF          7 INNER ITERATIONS.
    ------------------------------------------------

 NO OUTPUT CONTROL FOR STRESS PERIOD   33   TIME STEP   11
 
 SOLVING FOR HEAD 
                                                   Max.-Head-Change                         Max.-Flux-Residual
  Residual-Control   Outer-Iter.   Inner-Iter.     Column Row Layer    Maximum-Head-Change  Column Row Layer    Maximum-Flux-Residual          L2-NORM 
          0                 1           2             4    7     1      -0.5690455944E-01       4    7    1        -0.2995630162E+01      0.8635131440E+01
          0                 2           2             4    7     1       0.5535186627E-02       4    7    1         0.2995578544E+00      0.8635078551E+00
          0                 3           2             4    7     1      -0.3769264254E-03       4    7    1        -0.2096910771E-01      0.6044561629E-01
          0                 4           1             4    7     1       0.1499825182E-04       4    7    1         0.8576374803E-03      0.2472229020E-02

    ------------------------------------------------
       NWT REQUIRED            4 OUTER ITERATIONS 
       AND A TOTAL OF          7 INNER ITERATIONS.
    ------------------------------------------------

 NO OUTPUT CONTROL FOR STRESS PERIOD   33   TIME STEP   12
 
 SOLVING FOR HEAD 
                                                   Max.-Head-Change                         Max.-Flux-Residual
  Residual-Control   Outer-Iter.   Inner-Iter.     Column Row Layer    Maximum-Head-Change  Column Row Layer    Maximum-Flux-Residual          L2-NORM 
          0                 1           2             4    7     1      -0.5618980153E-01       4    7    1        -0.2956572848E+01      0.8581637691E+01
          0                 2           2             4    7     1       0.5465663366E-02       4    7    1         0.2956523468E+00      0.8581587431E+00
          0                 3           2             4    7     1      -0.3721921178E-03       4    7    1        -0.2069571994E-01      0.6007117565E-01
          0                 4           1             4    7     1       0.1480986911E-04       4    7    1         0.8464558991E-03      0.2456913201E-02

    ------------------------------------------------
       NWT REQUIRED            4 OUTER ITERATIONS 
       AND A TOTAL OF          7 INNER ITERATIONS.
    ------------------------------------------------

 NO OUTPUT CONTROL FOR STRESS PERIOD   33   TIME STEP   13
 
 SOLVING FOR HEAD 
                                                   Max.-Head-Change                         Max.-Flux-Residual
  Residual-Control   Outer-Iter.   Inner-Iter.     Column Row Layer    Maximum-Head-Change  Column Row Layer    Maximum-Flux-Residual          L2-NORM 
          0                 1           2             4    7     1      -0.5550983716E-01       4    7    1        -0.2919433009E+01      0.8531330148E+01
          0                 2           2             4    7     1       0.5399524401E-02       4    7    1         0.2919385749E+00      0.8531282068E+00
          0                 3           2             4    7     1      -0.3676882697E-03       4    7    1        -0.2043575378E-01      0.5971903632E-01
          0                 4           1             4    7     1       0.1463065676E-04       4    7    1         0.8358232758E-03      0.2442512254E-02

    ------------------------------------------------
       NWT REQUIRED            4 OUTER ITERATIONS 
       AND A TOTAL OF          7 INNER ITERATIONS.
    ------------------------------------------------

 NO OUTPUT CONTROL FOR STRESS PERIOD   33   TIME STEP   14
 
 SOLVING FOR HEAD 
                                                   Max.-Head-Change                         Max.-Flux-Residual
  Residual-Control   Outer-Iter.   Inner-Iter.     Column Row Layer    Maximum-Head-Change  Column Row Layer    Maximum-Flux-Residual          L2-NORM 
          0                 1           2             4    7     1      -0.5486272946E-01       4    7    1        -0.2884104428E+01      0.8483892246E+01
          0                 2           2             4    7     1       0.5336581336E-02       4    7    1         0.2884059175E+00      0.8483846091E+00
          0                 3           2             4    7     1      -0.3634020524E-03       4    7    1        -0.2018846576E-01      0.5938698224E-01
          0                 4           1             4    7     1       0.1446010466E-04       4    7    1         0.8257092022E-03      0.2428931059E-02

    ------------------------------------------------
       NWT REQUIRED            4 OUTER ITERATIONS 
       AND A TOTAL OF          7 INNER ITERATIONS.
    ------------------------------------------------

 NO OUTPUT CONTROL FOR STRESS PERIOD   33   TIME STEP   15
 
 SOLVING FOR HEAD 
                                                   Max.-Head-Change                         Max.-Flux-Residual
  Residual-Control   Outer-Iter.   Inner-Iter.     Column Row Layer    Maximum-Head-Change  Column Row Layer    Maximum-Flux-Residual          L2-NORM 
          0                 1           2             4    7     1      -0.5424651270E-01       4    7    1        -0.2850479477E+01      0.8439044011E+01
          0                 2           2             4    7     1       0.5276642964E-02       4    7    1         0.2850436124E+00      0.8438999799E+00
          0                 3           2             4    7     1      -0.3593204448E-03       4    7    1        -0.1995310250E-01      0.5907305484E-01
          0                 4           1             4    7     1       0.1429769381E-04       4    7    1         0.8160828356E-03      0.2416091528E-02

    ------------------------------------------------
       NWT REQUIRED            4 OUTER ITERATIONS 
       AND A TOTAL OF          7 INNER ITERATIONS.
    ------------------------------------------------

 NO OUTPUT CONTROL FOR STRESS PERIOD   33   TIME STEP   16
 
 SOLVING FOR HEAD 
                                                   Max.-Head-Change                         Max.-Flux-Residual
  Residual-Control   Outer-Iter.   Inner-Iter.     Column Row Layer    Maximum-Head-Change  Column Row Layer    Maximum-Flux-Residual          L2-NORM 
          0                 1           2             4    7     1      -0.5365945811E-01       4    7    1        -0.2818463432E+01      0.8396542501E+01
          0                 2           2             4    7     1       0.5219541130E-02       4    7    1         0.2818421875E+00      0.8396499951E+00
          0                 3           2             4    7     1      -0.3554319967E-03       4    7    1        -0.1972900098E-01      0.5877555357E-01
          0                 4           1             4    7     1       0.1414296876E-04       4    7    1         0.8069170819E-03      0.2403922905E-02

    ------------------------------------------------
       NWT REQUIRED            4 OUTER ITERATIONS 
       AND A TOTAL OF          7 INNER ITERATIONS.
    ------------------------------------------------

 NO OUTPUT CONTROL FOR STRESS PERIOD   33   TIME STEP   17
 
 SOLVING FOR HEAD 
                                                   Max.-Head-Change                         Max.-Flux-Residual
  Residual-Control   Outer-Iter.   Inner-Iter.     Column Row Layer    Maximum-Head-Change  Column Row Layer    Maximum-Flux-Residual          L2-NORM 
          0                 1           2             4    7     1      -0.5309980256E-01       4    7    1        -0.2787959455E+01      0.8356150611E+01
          0                 2           2             4    7     1       0.5165104337E-02       4    7    1         0.2787919597E+00      0.8356109402E+00
          0                 3           2             4    7     1      -0.3517250293E-03       4    7    1        -0.1951548333E-01      0.5849281786E-01
          0                 4           1             4    7     1       0.1399546567E-04       4    7    1         0.7981842182E-03      0.2392359808E-02

    ------------------------------------------------
       NWT REQUIRED            4 OUTER ITERATIONS 
       AND A TOTAL OF          7 INNER ITERATIONS.
    ------------------------------------------------

 NO OUTPUT CONTROL FOR STRESS PERIOD   33   TIME STEP   18
 
 SOLVING FOR HEAD 
                                                   Max.-Head-Change                         Max.-Flux-Residual
  Residual-Control   Outer-Iter.   Inner-Iter.     Column Row Layer    Maximum-Head-Change  Column Row Layer    Maximum-Flux-Residual          L2-NORM 
          0                 1           2             4    7     1      -0.5256601325E-01       4    7    1        -0.2758883327E+01      0.8317689366E+01
          0                 2           2             4    7     1       0.5113183491E-02       4    7    1         0.2758845074E+00      0.8317649360E+00
          0                 3           2             4    7     1      -0.3481893897E-03       4    7    1        -0.1931196006E-01      0.5822359622E-01
          0                 4           1             4    7     1       0.1385477940E-04       4    7    1         0.7898601098E-03      0.2381347841E-02

    ------------------------------------------------
       NWT REQUIRED            4 OUTER ITERATIONS 
       AND A TOTAL OF          7 INNER ITERATIONS.
    ------------------------------------------------

 NO OUTPUT CONTROL FOR STRESS PERIOD   33   TIME STEP   19
 
 SOLVING FOR HEAD 
                                                   Max.-Head-Change                         Max.-Flux-Residual
  Residual-Control   Outer-Iter.   Inner-Iter.     Column Row Layer    Maximum-Head-Change  Column Row Layer    Maximum-Flux-Residual          L2-NORM 
          0                 1           2             4    7     1      -0.5205650891E-01       4    7    1        -0.2731148372E+01      0.8280970488E+01
          0                 2           2             4    7     1       0.5063624784E-02       4    7    1         0.2731111635E+00      0.8280931549E+00
          0                 3           2             4    7     1      -0.3448146037E-03       4    7    1        -0.1911782446E-01      0.5796656998E-01
          0                 4           1             4    7     1       0.1372049307E-04       4    7    1         0.7819199361E-03      0.2370835244E-02

    ------------------------------------------------
       NWT REQUIRED            4 OUTER ITERATIONS 
       AND A TOTAL OF          7 INNER ITERATIONS.
    ------------------------------------------------

 NO OUTPUT CONTROL FOR STRESS PERIOD   33   TIME STEP   20
 
 SOLVING FOR HEAD 
                                                   Max.-Head-Change                         Max.-Flux-Residual
  Residual-Control   Outer-Iter.   Inner-Iter.     Column Row Layer    Maximum-Head-Change  Column Row Layer    Maximum-Flux-Residual          L2-NORM 
          0                 1           2             4    7     1      -0.5156980174E-01       4    7    1        -0.2704672604E+01      0.8245841551E+01
          0                 2           2             4    7     1       0.5016283500E-02       4    7    1         0.2704637297E+00      0.8245803550E+00
          0                 3           2             4    7     1      -0.3415908178E-03       4    7    1        -0.1893250266E-01      0.5772067240E-01
          0                 4           1             4    7     1       0.1359221594E-04       4    7    1         0.7743402757E-03      0.2360778764E-02

    ------------------------------------------------
       NWT REQUIRED            4 OUTER ITERATIONS 
       AND A TOTAL OF          7 INNER ITERATIONS.
    ------------------------------------------------

 NO OUTPUT CONTROL FOR STRESS PERIOD   33   TIME STEP   21
 
 SOLVING FOR HEAD 
                                                   Max.-Head-Change                         Max.-Flux-Residual
  Residual-Control   Outer-Iter.   Inner-Iter.     Column Row Layer    Maximum-Head-Change  Column Row Layer    Maximum-Flux-Residual          L2-NORM 
          0                 1           2             4    7     1      -0.5110461958E-01       4    7    1        -0.2679386072E+01      0.8212150642E+01
          0                 2           2             4    7     1       0.4971035899E-02       4    7    1         0.2679352116E+00      0.8212113478E+00
          0                 3           2             4    7     1      -0.3385096055E-03       4    7    1        -0.1875550504E-01      0.5748484099E-01
          0                 4           1             4    7     1       0.1346961207E-04       4    7    1         0.7671010915E-03      0.2351132870E-02

    ------------------------------------------------
       NWT REQUIRED            4 OUTER ITERATIONS 
       AND A TOTAL OF          7 INNER ITERATIONS.
    ------------------------------------------------

 NO OUTPUT CONTROL FOR STRESS PERIOD   33   TIME STEP   22
 
 SOLVING FOR HEAD 
                                                   Max.-Head-Change                         Max.-Flux-Residual
  Residual-Control   Outer-Iter.   Inner-Iter.     Column Row Layer    Maximum-Head-Change  Column Row Layer    Maximum-Flux-Residual          L2-NORM 
          0                 1           2             4    7     1      -0.5065963223E-01       4    7    1        -0.2655215620E+01      0.8179783952E+01
          0                 2           2             4    7     1       0.4927752593E-02       4    7    1         0.2655182938E+00      0.8179747525E+00
          0                 3           2             4    7     1      -0.3355621550E-03       4    7    1        -0.1858631953E-01      0.5725827757E-01
          0                 4           1             4    7     1       0.1335233020E-04       4    7    1         0.7601813995E-03      0.2341868980E-02

    ------------------------------------------------
       NWT REQUIRED            4 OUTER ITERATIONS 
       AND A TOTAL OF          7 INNER ITERATIONS.
    ------------------------------------------------

 NO OUTPUT CONTROL FOR STRESS PERIOD   33   TIME STEP   23
 
 SOLVING FOR HEAD 
                                                   Max.-Head-Change                         Max.-Flux-Residual
  Residual-Control   Outer-Iter.   Inner-Iter.     Column Row Layer    Maximum-Head-Change  Column Row Layer    Maximum-Flux-Residual          L2-NORM 
          0                 1           2             4    7     1      -0.5023372269E-01       4    7    1        -0.2632099470E+01      0.8148626551E+01
          0                 2           2             4    7     1       0.4886324934E-02       4    7    1         0.2632067990E+00      0.8148590769E+00
          0                 3           2             4    7     1      -0.3327410680E-03       4    7    1        -0.1842451369E-01      0.5704017875E-01
          0                 4           1             4    7     1       0.1324007653E-04       4    7    1         0.7535635236E-03      0.2332946545E-02

    ------------------------------------------------
       NWT REQUIRED            4 OUTER ITERATIONS 
       AND A TOTAL OF          7 INNER ITERATIONS.
    ------------------------------------------------

 NO OUTPUT CONTROL FOR STRESS PERIOD   33   TIME STEP   24
 
 SOLVING FOR HEAD 
                                                   Max.-Head-Change                         Max.-Flux-Residual
  Residual-Control   Outer-Iter.   Inner-Iter.     Column Row Layer    Maximum-Head-Change  Column Row Layer    Maximum-Flux-Residual          L2-NORM 
          0                 1           2             4    7     1      -0.4982557175E-01       4    7    1        -0.2609965320E+01      0.8118568399E+01
          0                 2           2             4    7     1       0.4846624607E-02       4    7    1         0.2609934974E+00      0.8118533224E+00
          0                 3           2             4    7     1      -0.3300376068E-03       4    7    1        -0.1826958144E-01      0.5682977496E-01
          0                 4           1             4    7     1       0.1313250303E-04       4    7    1         0.7472267835E-03      0.2324340188E-02

    ------------------------------------------------
       NWT REQUIRED            4 OUTER ITERATIONS 
       AND A TOTAL OF          7 INNER ITERATIONS.
    ------------------------------------------------

 NO OUTPUT CONTROL FOR STRESS PERIOD   33   TIME STEP   25
 
 SOLVING FOR HEAD 
                                                   Max.-Head-Change                         Max.-Flux-Residual
  Residual-Control   Outer-Iter.   Inner-Iter.     Column Row Layer    Maximum-Head-Change  Column Row Layer    Maximum-Flux-Residual          L2-NORM 
          0                 1           2             4    7     1      -0.4943420493E-01       4    7    1        -0.2588759153E+01      0.8089529688E+01
          0                 2           2             4    7     1       0.4808556825E-02       4    7    1         0.2588729877E+00      0.8089560928E+00
          0                 3           2             4    7     1      -0.3274453168E-03       4    7    1        -0.1812114466E-01      0.5662696659E-01
          0                 4           1             4    7     1       0.1302935376E-04       4    7    1         0.7411557231E-03      0.2316046256E-02

    ------------------------------------------------
       NWT REQUIRED            4 OUTER ITERATIONS 
       AND A TOTAL OF          7 INNER ITERATIONS.
    ------------------------------------------------

 NO OUTPUT CONTROL FOR STRESS PERIOD   33   TIME STEP   26
 
 SOLVING FOR HEAD 
                                                   Max.-Head-Change                         Max.-Flux-Residual
  Residual-Control   Outer-Iter.   Inner-Iter.     Column Row Layer    Maximum-Head-Change  Column Row Layer    Maximum-Flux-Residual          L2-NORM 
          0                 1           2             4    7     1      -0.4905870433E-01       4    7    1        -0.2568430441E+01      0.8061421024E+01
          0                 2           2             4    7     1       0.4772032304E-02       4    7    1         0.2568402172E+00      0.8061386798E+00
          0                 3           2             4    7     1      -0.3249581183E-03       4    7    1        -0.1797884972E-01      0.5642974830E-01
          0                 4           1             4    7     1       0.1293038593E-04       4    7    1         0.7353358533E-03      0.2307980316E-02

    ------------------------------------------------
       NWT REQUIRED            4 OUTER ITERATIONS 
       AND A TOTAL OF          7 INNER ITERATIONS.
    ------------------------------------------------

 NO OUTPUT CONTROL FOR STRESS PERIOD   33   TIME STEP   27
 
 SOLVING FOR HEAD 
                                                   Max.-Head-Change                         Max.-Flux-Residual
  Residual-Control   Outer-Iter.   Inner-Iter.     Column Row Layer    Maximum-Head-Change  Column Row Layer    Maximum-Flux-Residual          L2-NORM 
          0                 1           2             4    7     1      -0.4869781785E-01       4    7    1        -0.2548910019E+01      0.8034159539E+01
          0                 2           2             4    7     1       0.4736929259E-02       4    7    1         0.2548882700E+00      0.8034125680E+00
          0                 3           2             4    7     1      -0.3225677177E-03       4    7    1        -0.1784221247E-01      0.5623891977E-01
          0                 4           1             4    7     1       0.1283526958E-04       4    7    1         0.7297473878E-03      0.2300176238E-02

    ------------------------------------------------
       NWT REQUIRED            4 OUTER ITERATIONS 
       AND A TOTAL OF          7 INNER ITERATIONS.
    ------------------------------------------------

 NO OUTPUT CONTROL FOR STRESS PERIOD   33   TIME STEP   28
 
 SOLVING FOR HEAD 
                                                   Max.-Head-Change                         Max.-Flux-Residual
  Residual-Control   Outer-Iter.   Inner-Iter.     Column Row Layer    Maximum-Head-Change  Column Row Layer    Maximum-Flux-Residual          L2-NORM 
          0                 1           2             4    7     1      -0.4835102038E-01       4    7    1        -0.2530168915E+01      0.8007690710E+01
          0                 2           2             4    7     1       0.4703196612E-02       4    7    1         0.2530142492E+00      0.8007657189E+00
          0                 3           2             4    7     1      -0.3202706364E-03       4    7    1        -0.1771103009E-01      0.5605363758E-01
          0                 4           1             4    7     1       0.1274386632E-04       4    7    1         0.7243820082E-03      0.2292596520E-02

    ------------------------------------------------
       NWT REQUIRED            4 OUTER ITERATIONS 
       AND A TOTAL OF          7 INNER ITERATIONS.
    ------------------------------------------------

 NO OUTPUT CONTROL FOR STRESS PERIOD   33   TIME STEP   29
 
 SOLVING FOR HEAD 
                                                   Max.-Head-Change                         Max.-Flux-Residual
  Residual-Control   Outer-Iter.   Inner-Iter.     Column Row Layer    Maximum-Head-Change  Column Row Layer    Maximum-Flux-Residual          L2-NORM 
          0                 1           2             4    7     1      -0.4801716820E-01       4    7    1        -0.2512143954E+01      0.7981953106E+01
          0                 2           2             4    7     1       0.4670723115E-02       4    7    1         0.2512118376E+00      0.7981919875E+00
          0                 3           2             4    7     1      -0.3180593000E-03       4    7    1        -0.1758486043E-01      0.5587347472E-01
          0                 4           1             4    7     1       0.1265587568E-04       4    7    1         0.7192216835E-03      0.2285227922E-02

    ------------------------------------------------
       NWT REQUIRED            4 OUTER ITERATIONS 
       AND A TOTAL OF          7 INNER ITERATIONS.
    ------------------------------------------------

 NO OUTPUT CONTROL FOR STRESS PERIOD   33   TIME STEP   30



 STREAM LISTING     PERIOD     33   STEP       30

 LAYER ROW COL. STREAM  RCH.  FLOW INTO     FLOW TO   FLOW OUT OF   OVRLND.     DIRECT     STREAM       STREAM     STREAM     STREAM   STREAMBED  STREAMBED
                SEG.NO.  NO.  STRM. RCH.    AQUIFER    STRM. RCH.    RUNOFF     PRECIP       ET          HEAD       DEPTH      WIDTH   CONDCTNC.   GRADIENT

   1    1    1     1     1    1.9000E+01  2.1427E-01   1.8786E+01  0.000E+00  0.000E+00  0.000E+00  1.09413E+03  1.082E+00  1.166E+01  5.249E-02  1.361E+00
   1    2    2     1     2    1.8786E+01  3.3054E-01   1.8455E+01  0.000E+00  0.000E+00  0.000E+00  1.08914E+03  1.077E+00  1.158E+01  8.107E-02  1.359E+00
   1    3    3     1     3    1.8455E+01  2.8064E-01   1.8175E+01  0.000E+00  0.000E+00  0.000E+00  1.08349E+03  1.072E+00  1.149E+01  6.892E-02  1.357E+00
   1    3    4     1     4    1.8175E+01  2.5740E-01   1.7917E+01  0.000E+00  0.000E+00  0.000E+00  1.07848E+03  1.068E+00  1.140E+01  6.328E-02  1.356E+00
   1    4    5     2     1    1.5917E+01  3.0542E-01   1.5612E+01  0.000E+00  0.000E+00  0.000E+00  1.07285E+03  9.157E-01  1.200E+01  7.800E-02  1.305E+00
   1    5    6     2     2    1.5612E+01  2.3438E-01   1.5377E+01  0.000E+00  0.000E+00  0.000E+00  1.06742E+03  9.063E-01  1.200E+01  6.000E-02  1.302E+00
   1    6    6     2     3    1.5377E+01  2.3388E-01   1.5143E+01  0.000E+00  0.000E+00  0.000E+00  1.06269E+03  8.980E-01  1.200E+01  6.000E-02  1.299E+00
   1    7    6     2     4    1.5143E+01  2.3338E-01   1.4910E+01  0.000E+00  0.000E+00  0.000E+00  1.05797E+03  8.897E-01  1.200E+01  6.000E-02  1.297E+00
   1    8    6     2     5    1.4910E+01  2.3289E-01   1.4677E+01  0.000E+00  0.000E+00  0.000E+00  1.05324E+03  8.814E-01  1.200E+01  6.000E-02  1.294E+00
   1    3    5     3     1    2.0000E+00  2.8252E-01   1.7175E+00  0.000E+00  0.000E+00  0.000E+00  1.07555E+03  1.909E+00  9.636E+00  7.227E-02  1.955E+00
   1    3    6     3     2    1.7175E+00  2.4905E-01   1.4684E+00  0.000E+00  0.000E+00  0.000E+00  1.07264E+03  1.727E+00  8.909E+00  6.682E-02  1.864E+00
   1    3    7     3     3    1.4684E+00  1.9718E-01   1.2712E+00  0.000E+00  0.000E+00  0.000E+00  1.06987E+03  1.555E+00  8.218E+00  5.547E-02  1.777E+00
   1    4    8     3     4    1.2712E+00  2.2567E-01   1.0456E+00  0.000E+00  0.000E+00  0.000E+00  1.06682E+03  1.364E+00  7.455E+00  6.709E-02  1.682E+00
   1    5    8     3     5    1.0456E+00  1.5790E-01   8.8768E-01  0.000E+00  0.000E+00  0.000E+00  1.06362E+03  1.164E+00  6.655E+00  4.991E-02  1.582E+00
   1    6    8     3     6    8.8768E-01  5.5980E-02   8.3170E-01  0.000E+00  0.000E+00  0.000E+00  1.06158E+03  1.036E+00  6.145E+00  1.844E-02  1.518E+00
   1    5   10     4     1    1.0000E+01  9.0919E-02   9.9091E+00  0.000E+00  0.000E+00  0.000E+00  1.07836E+03  6.368E-01  1.000E+01  2.500E-02  1.212E+00
   1    5    9     4     2    9.9091E+00  1.8158E-01   9.7275E+00  0.000E+00  0.000E+00  0.000E+00  1.07154E+03  6.315E-01  1.000E+01  5.000E-02  1.211E+00
   1    6    8     4     3    9.7275E+00  1.2689E-01   9.6006E+00  0.000E+00  0.000E+00  0.000E+00  1.06381E+03  6.256E-01  1.000E+01  3.500E-02  1.209E+00
   1    6    8     5     1    1.0432E+01  2.2686E-01   1.0205E+01  0.000E+00  0.000E+00  0.000E+00  1.05868E+03  6.790E-01  1.542E+01  6.166E-02  1.226E+00
   1    7    7     5     2    1.0205E+01  2.7894E-01   9.9265E+00  0.000E+00  0.000E+00  0.000E+00  1.05417E+03  6.732E-01  1.519E+01  7.594E-02  1.224E+00
   1    8    7     5     3    9.9265E+00  1.9221E-01   9.7343E+00  0.000E+00  0.000E+00  0.000E+00  1.04992E+03  6.676E-01  1.497E+01  5.241E-02  1.223E+00
   1    8    6     5     4    9.7343E+00  1.3577E-01   9.5985E+00  0.000E+00  0.000E+00  0.000E+00  1.04691E+03  6.637E-01  1.482E+01  3.706E-02  1.221E+00
   1    9    6     6     1    2.4276E+01  2.5176E-01   2.4024E+01  0.000E+00  0.000E+00  0.000E+00  1.04392E+03  1.196E+00  1.200E+01  6.000E-02  1.399E+00
   1   10    7     6     2    2.4024E+01  2.5131E-01   2.3773E+01  0.000E+00  0.000E+00  0.000E+00  1.03937E+03  1.188E+00  1.200E+01  6.000E-02  1.396E+00
   1   11    7     6     3    2.3773E+01  2.5086E-01   2.3522E+01  0.000E+00  0.000E+00  0.000E+00  1.03482E+03  1.181E+00  1.200E+01  6.000E-02  1.394E+00
   1   12    7     6     4    2.3522E+01  2.5041E-01   2.3271E+01  0.000E+00  0.000E+00  0.000E+00  1.03026E+03  1.173E+00  1.200E+01  6.000E-02  1.391E+00
   1   13    7     6     5    2.3271E+01  6.8532E-03   2.3265E+01  0.000E+00  0.000E+00  0.000E+00  1.02708E+03  1.170E+00  1.200E+01  2.400E-02  9.518E-02
   1   14    9     7     1    1.5000E+02  1.3518E+00   1.4865E+02  0.000E+00  0.000E+00  0.000E+00  1.03987E+03  2.288E+00  5.529E+01  5.593E-01  8.057E-01
   1   13    8     7     2    1.4865E+02  1.9141E+00   1.4673E+02  0.000E+00  0.000E+00  0.000E+00  1.03478E+03  2.279E+00  5.526E+01  6.148E-01  1.038E+00
   1   13    7     7     3    1.4673E+02  1.6170E+00   1.4512E+02  0.000E+00  0.000E+00  0.000E+00  1.02969E+03  2.270E+00  5.521E+01  5.584E-01  9.653E-01
   1   13    6     8     1    1.6838E+02  1.0557E+00   1.6733E+02  0.000E+00  0.000E+00  0.000E+00  1.02481E+03  2.938E+00  4.260E+01  4.341E-01  8.106E-01
   1   13    5     8     2    1.6733E+02  2.9958E-01   1.6703E+02  0.000E+00  0.000E+00  0.000E+00  1.01856E+03  2.934E+00  4.254E+01  4.335E-01  2.304E-01
   1   13    4     8     3    1.6703E+02 -2.0241E+00   1.6905E+02  0.000E+00  0.000E+00  0.000E+00  1.01231E+03  2.939E+00  4.262E+01  4.343E+00 -1.553E-01
   1   13    3     8     4    1.6905E+02 -3.4464E+00   1.7250E+02  0.000E+00  0.000E+00  0.000E+00  1.00608E+03  2.957E+00  4.288E+01  4.370E+00 -2.629E-01
   1   13    2     8     5    1.7250E+02 -2.5268E+00   1.7502E+02  0.000E+00  0.000E+00  0.000E+00  9.99852E+02  2.977E+00  4.316E+01  4.398E+00 -1.915E-01
   1   13    1     8     6    1.7502E+02 -1.9697E+00   1.7699E+02  0.000E+00  0.000E+00  0.000E+00  9.94866E+02  2.991E+00  4.337E+01  2.652E+00 -2.476E-01





UNSATURATED ZONE PACKAGE VOLUMETRIC BUDGET FOR  TIME STEP    30 STRESS PERIOD   33
  ------------------------------------------------------------------------------



     CUMULATIVE VOLUMES      L**3       RATES FOR THIS TIME STEP      L**3/T
     ------------------                 ------------------------

           IN:                                      IN:
           ---                                      ---
        INFILTRATION =  1753193749.4592          INFILTRATION =          52.8575

          OUT:                                     OUT:
          ----                                     ----
              UZF ET =  1446687055.0875                UZF ET =          52.8575
        UZF RECHARGE =   148008121.5437          UZF RECHARGE =           0.0006

            IN - OUT =   158498572.8280              IN - OUT =      -6.4279E-04

          STORAGE:                                 STORAGE:
          --------                                 --------
      STORAGE CHANGE =   158500077.2289        STORAGE CHANGE =      -6.4279E-04

 PERCENT DISCREPANCY IS DIFFERENCE BETWEEN IN-OUT MINUS CHANGE IN STORAGE
 DIVIDED BY THE AVERAGE OF IN AND OUT TIMES 100

 PERCENT DISCREPANCY =          -0.00     PERCENT DISCREPANCY =           0.00






1
  VOLUMETRIC BUDGET FOR AGRICULTURAL FIELDS AT TIME STEP   30, STRESS PERIOD  33
  ------------------------------------------------------------------------------

     CUMULATIVE VOLUMES      L**3       RATES FOR THIS TIME STEP      L**3/T
     ------------------                 ------------------------

           IN:                                      IN:
           ---                                      ---
               AG WELLS  =  1382183296.0000                 AG WELLS  =          48.4500
      DIVERSION SEGMENTS =           0.0000        DIVERSION SEGMENTS =           0.0000
           GW IRRIGATION =           0.0000             GW IRRIGATION =           0.0000
           SW IRRIGATION =           0.0000             SW IRRIGATION =           0.0000
        SYSTEM LOSSES GW =           0.0000          SYSTEM LOSSES GW =           0.0000
        SYSTEM LOSSES SW =           0.0000          SYSTEM LOSSES SW =           0.0000

                TOTAL IN =  1382183296.0000                  TOTAL IN =          48.4500

          OUT:                                     OUT:
          ----                                     ----
               AG WELLS  =           0.0000                 AG WELLS  =           0.0000
      DIVERSION SEGMENTS =           0.0000        DIVERSION SEGMENTS =           0.0000
           GW IRRIGATION =  1382183296.0000             GW IRRIGATION =          48.4500
           SW IRRIGATION =           0.0000             SW IRRIGATION =           0.0000
        SYSTEM LOSSES GW =           0.0000          SYSTEM LOSSES GW =           0.0000
        SYSTEM LOSSES SW =           0.0000          SYSTEM LOSSES SW =           0.0000

               TOTAL OUT =  1382183296.0000                 TOTAL OUT =          48.4500

                IN - OUT =           0.0000                  IN - OUT =           0.0000

     PERCENT DISCREPANCY =           0.00         PERCENT DISCREPANCY =           0.00



1
  VOLUMETRIC BUDGET FOR ENTIRE MODEL AT END OF TIME STEP   30, STRESS PERIOD  33
  ------------------------------------------------------------------------------

     CUMULATIVE VOLUMES      L**3       RATES FOR THIS TIME STEP      L**3/T
     ------------------                 ------------------------

           IN:                                      IN:
           ---                                      ---
             STORAGE     =  1676184064.0000               STORAGE     =          46.5085
       CONSTANT HEAD     =           0.0000         CONSTANT HEAD     =           0.0000
     HEAD DEP BOUNDS     =    24068742.0000       HEAD DEP BOUNDS     =           0.2868
      STREAM LEAKAGE     =  1034361408.0000        STREAM LEAKAGE     =          11.9738
        UZF RECHARGE     =   148008112.0000          UZF RECHARGE     =       6.4279E-04
               GW ET     =           0.0000                 GW ET     =           0.0000
     SURFACE LEAKAGE     =           0.0000       SURFACE LEAKAGE     =           0.0000
           AG WELLS      =           0.0000             AG WELLS      =           0.0000

                TOTAL IN =  2882622464.0000                  TOTAL IN =          58.7698

          OUT:                                     OUT:
          ----                                     ----
             STORAGE     =   589336512.0000               STORAGE     =       6.3806E-02
       CONSTANT HEAD     =           0.0000         CONSTANT HEAD     =           0.0000
     HEAD DEP BOUNDS     =    24672296.0000       HEAD DEP BOUNDS     =           0.2891
      STREAM LEAKAGE     =   869128256.0000        STREAM LEAKAGE     =           9.9670
        UZF RECHARGE     =           0.0000          UZF RECHARGE     =           0.0000
               GW ET     =    17288296.0000                 GW ET     =           0.0000
     SURFACE LEAKAGE     =           0.0000       SURFACE LEAKAGE     =           0.0000
           AG WELLS      =  1382183296.0000             AG WELLS      =          48.4500

               TOTAL OUT =  2882608640.0000                 TOTAL OUT =          58.7700

                IN - OUT =       13824.0000                  IN - OUT =      -1.6022E-04

     PERCENT DISCREPANCY =           0.00         PERCENT DISCREPANCY =          -0.00






         TIME SUMMARY AT END OF TIME STEP   30 IN STRESS PERIOD   33
                    SECONDS     MINUTES      HOURS       DAYS        YEARS
                    -----------------------------------------------------------
   TIME STEP LENGTH  87667.      1461.1      24.352      1.0147     2.77799E-03
 STRESS PERIOD TIME 2.63000E+06  43833.      730.56      30.440     8.33397E-02
         TOTAL TIME 8.42463E+07 1.40410E+06  23402.      975.07      2.6696    
1
1
                            STRESS PERIOD NO.   34, LENGTH =   2630000.    
                            -----------------------------------------------

                              NUMBER OF TIME STEPS =    30

                               MULTIPLIER FOR DELT =     1.000

                            INITIAL TIME STEP SIZE =   87666.66    

 REUSING NON-PARAMETER GHB CELLS FROM LAST STRESS PERIOD

      2 GHB CELLS

 REUSING STREAM SEGMENT DATA FROM LAST STRESS PERIOD



            AREAL INFILTRATION RATE
 READING ON UNIT   19 WITH FORMAT: (10F4.0)            

            1           2           3           4           5           6           7           8           9          10
 ........................................................................................................................
   1   1.2000E-09   0.000       0.000       0.000       0.000       0.000       0.000       0.000       0.000       0.000    
   2   2.1000E-09  2.0000E-09  8.0000E-10  8.5000E-09   0.000       0.000       0.000       0.000       0.000       0.000    
   3   5.0000E-10  1.1000E-09  8.8000E-09  5.5000E-09   0.000       0.000       0.000       0.000       0.000       0.000    
   4   8.5000E-09  1.1000E-09  1.1000E-09  1.1000E-09  2.0000E-09   0.000       0.000       0.000       0.000       0.000    
   5   8.5000E-09  1.1000E-09  1.1000E-09  1.1000E-09  1.1000E-09   0.000       0.000       0.000       0.000       0.000    
   6   8.5000E-09  5.2000E-09  2.1000E-09  1.1000E-09  1.5000E-09   0.000       0.000       0.000       0.000       0.000    
   7   8.5000E-09  5.2000E-09  2.1000E-09  1.2000E-09  2.0000E-09   0.000       0.000       0.000       0.000       0.000    
   8   5.0000E-10  5.2000E-09  2.1000E-09  1.2000E-09  5.0000E-09   0.000       0.000       0.000       0.000       0.000    
   9   5.0000E-10  5.2000E-09  2.1000E-09  1.2000E-09  5.0000E-09   0.000       0.000       0.000       0.000       0.000    
  10   5.0000E-10  5.2000E-09  2.1000E-09  1.2000E-09  5.8000E-09   0.000       0.000       0.000       0.000       0.000    
  11   1.0000E-10  1.1000E-09  1.1000E-09  1.2000E-09  5.0000E-09   0.000       0.000       0.000       0.000       0.000    
  12   1.1000E-09  1.1000E-09  1.1000E-09  1.1000E-09  2.0000E-09   0.000       0.000       0.000       0.000       0.000    
  13   1.1000E-09  2.2000E-09  2.2000E-09  2.1000E-09  1.0000E-09   0.000       0.000       0.000       0.000       0.000    
  14   2.0000E-10  5.5000E-09  5.5000E-09  5.2000E-09  1.0000E-09   0.000       0.000       0.000       0.000       0.000    
  15    0.000      8.8000E-09  8.8000E-09   0.000       0.000       0.000       0.000       0.000       0.000       0.000    

                  ET RATE =  7.500000E-08

 USING ET EXTINCTION DEPTH FROM PREVIOUS STRESS PERIOD. CURRENT PERIOD IS:      34

 USING EXTINCTION WATER CONTENT FROM PREVIOUS STRESS PERIOD. CURRENT PERIOD IS:      34

 USING AIR ENTRY PRESSURE FROM PREVIOUS STRESS PERIOD. CURRENT PERIOD IS:      34

 USING ROOT PRESSURE HEAD FROM PREVIOUS STRESS PERIOD. CURRENT PERIOD IS:      34

 USING ROOT ACTIVITY FROM PREVIOUS STRESS PERIOD. CURRENT PERIOD IS:      34

 PROCESSING AG STRESS PERIOD DATA

 READING AG STRESS PERIOD DATA

 READING IRRIGATION WELL

 END PROCESSING AG STRESS PERIOD DATA OPTIONS
 
 SOLVING FOR HEAD 
                                                   Max.-Head-Change                         Max.-Flux-Residual
  Residual-Control   Outer-Iter.   Inner-Iter.     Column Row Layer    Maximum-Head-Change  Column Row Layer    Maximum-Flux-Residual          L2-NORM 
          0                 1           2             5    8     1       0.8275629066E-01       5    8    1         0.4492422859E+01      0.1199278800E+02
          0                 2           2             5    8     1      -0.8049786815E-02       5    8    1        -0.4492323088E+00      0.1199251046E+01
          0                 3           2             5    8     1       0.5481620337E-03       5    8    1         0.3144637071E-01      0.8394778237E-01
          0                 4           1             5    8     1      -0.2181187415E-04       5    8    1        -0.1286157925E-02      0.3433467821E-02

    ------------------------------------------------
       NWT REQUIRED            4 OUTER ITERATIONS 
       AND A TOTAL OF          7 INNER ITERATIONS.
    ------------------------------------------------

 NO OUTPUT CONTROL FOR STRESS PERIOD   34   TIME STEP    1
 
 SOLVING FOR HEAD 
                                                   Max.-Head-Change                         Max.-Flux-Residual
  Residual-Control   Outer-Iter.   Inner-Iter.     Column Row Layer    Maximum-Head-Change  Column Row Layer    Maximum-Flux-Residual          L2-NORM 
          0                 1           2             5    8     1       0.7928378029E-01       5    8    1         0.4300409638E+01      0.1163548551E+02
          0                 2           2             5    8     1      -0.7712015833E-02       5    8    1        -0.4300316515E+00      0.1163523530E+01
          0                 3           2             5    8     1       0.5251609884E-03       5    8    1         0.3010231784E-01      0.8144682725E-01
          0                 4           1             5    8     1      -0.2089664150E-04       5    8    1        -0.1231186111E-02      0.3331176001E-02

    ------------------------------------------------
       NWT REQUIRED            4 OUTER ITERATIONS 
       AND A TOTAL OF          7 INNER ITERATIONS.
    ------------------------------------------------

 NO OUTPUT CONTROL FOR STRESS PERIOD   34   TIME STEP    2
 
 SOLVING FOR HEAD 
                                                   Max.-Head-Change                         Max.-Flux-Residual
  Residual-Control   Outer-Iter.   Inner-Iter.     Column Row Layer    Maximum-Head-Change  Column Row Layer    Maximum-Flux-Residual          L2-NORM 
          0                 1           2             5    8     1       0.7601808805E-01       5    8    1         0.4119968190E+01      0.1129667169E+02
          0                 2           2             5    8     1      -0.7394361903E-02       5    8    1        -0.4119881221E+00      0.1129644610E+01
          0                 3           2             5    8     1       0.5035298464E-03       5    8    1         0.2883926442E-01      0.7907527994E-01
          0                 4           1             5    8     1      -0.2003591809E-04       5    8    1        -0.1179527158E-02      0.3234182504E-02

    ------------------------------------------------
       NWT REQUIRED            4 OUTER ITERATIONS 
       AND A TOTAL OF          7 INNER ITERATIONS.
    ------------------------------------------------

 NO OUTPUT CONTROL FOR STRESS PERIOD   34   TIME STEP    3
 
 SOLVING FOR HEAD 
                                                   Max.-Head-Change                         Max.-Flux-Residual
  Residual-Control   Outer-Iter.   Inner-Iter.     Column Row Layer    Maximum-Head-Change  Column Row Layer    Maximum-Flux-Residual          L2-NORM 
          0                 1           2             5    8     1       0.1029789310E+00       5    8    1         0.5607397628E+01      0.1167431438E+02
          0                 2           2             5    8     1       0.2701951238E-01       5    8    1         0.1498237950E+01      0.1814699856E+01
          0                 3           2             5    8     1       0.7089260481E-02       5    8    1         0.3905893031E+00      0.3971720493E+00
          0                 4           1             5    8     1       0.1860059545E-02       5    8    1         0.1026314158E+00      0.1026708003E+00
          0                 5           1             5    8     1       0.4880373688E-03       5    8    1         0.2692013895E-01      0.2692128594E-01
          0                 6           1             5    8     1       0.1280499499E-03       5    8    1         0.7063618877E-02      0.7063824075E-02
          0                 7           1             5    8     1       0.3359740782E-04       5    8    1         0.1853317385E-02      0.1853374281E-02

    ------------------------------------------------
       NWT REQUIRED            7 OUTER ITERATIONS 
       AND A TOTAL OF         10 INNER ITERATIONS.
    ------------------------------------------------

 NO OUTPUT CONTROL FOR STRESS PERIOD   34   TIME STEP    4
 
 SOLVING FOR HEAD 
                                                   Max.-Head-Change                         Max.-Flux-Residual
  Residual-Control   Outer-Iter.   Inner-Iter.     Column Row Layer    Maximum-Head-Change  Column Row Layer    Maximum-Flux-Residual          L2-NORM 
          0                 1           2             5    8     1       0.3168236944E+00       5    8    1         0.1740262333E+02      0.2007393720E+02
          0                 2           2             5    8     1      -0.3080677107E-01       5    8    1        -0.1739667633E+01      0.2006810026E+01
          0                 3           2             5    8     1       0.2096277549E-02       5    8    1         0.1216860294E+00      0.1403986849E+00
          0                 4           1             5    8     1      -0.8331332171E-04       5    8    1        -0.4971001840E-02      0.5737143318E-02

    ------------------------------------------------
       NWT REQUIRED            4 OUTER ITERATIONS 
       AND A TOTAL OF          7 INNER ITERATIONS.
    ------------------------------------------------

 NO OUTPUT CONTROL FOR STRESS PERIOD   34   TIME STEP    5
 
 SOLVING FOR HEAD 
                                                   Max.-Head-Change                         Max.-Flux-Residual
  Residual-Control   Outer-Iter.   Inner-Iter.     Column Row Layer    Maximum-Head-Change  Column Row Layer    Maximum-Flux-Residual          L2-NORM 
          0                 1           2             5    8     1       0.1313179370E+00       5    8    1         0.7156446578E+01      0.1218412917E+02
          0                 2           2             5    8     1      -0.1276740367E-01       5    8    1        -0.7152948896E+00      0.1218185546E+01
          0                 3           2             5    8     1       0.8687851138E-03       5    8    1         0.5003402797E-01      0.8525163678E-01
          0                 4           1             5    8     1      -0.3452845823E-04       5    8    1        -0.2043918470E-02      0.3485343356E-02

    ------------------------------------------------
       NWT REQUIRED            4 OUTER ITERATIONS 
       AND A TOTAL OF          7 INNER ITERATIONS.
    ------------------------------------------------

 NO OUTPUT CONTROL FOR STRESS PERIOD   34   TIME STEP    6
 
 SOLVING FOR HEAD 
                                                   Max.-Head-Change                         Max.-Flux-Residual
  Residual-Control   Outer-Iter.   Inner-Iter.     Column Row Layer    Maximum-Head-Change  Column Row Layer    Maximum-Flux-Residual          L2-NORM 
          0                 1           2             5    8     1       0.1253253223E+00       5    8    1         0.6823883267E+01      0.1181536560E+02
          0                 2           2             5    8     1       0.1242462816E-01       5    8    1         0.6946957720E+00      0.1188667559E+01
          0                 3           2             5    8     1       0.3259714864E-02       5    8    1         0.1792080678E+00      0.1915742510E+00
          0                 4           1             5    8     1       0.8552191696E-03       5    8    1         0.4720699121E-01      0.4728320028E-01
          0                 5           1             5    8     1       0.2243754607E-03       5    8    1         0.1237678836E-01      0.1237750922E-01
          0                 6           1             5    8     1       0.5886719400E-04       5    8    1         0.3247076370E-02      0.3247298103E-02

    ------------------------------------------------
       NWT REQUIRED            6 OUTER ITERATIONS 
       AND A TOTAL OF          9 INNER ITERATIONS.
    ------------------------------------------------

 NO OUTPUT CONTROL FOR STRESS PERIOD   34   TIME STEP    7
 
 SOLVING FOR HEAD 
                                                   Max.-Head-Change                         Max.-Flux-Residual
  Residual-Control   Outer-Iter.   Inner-Iter.     Column Row Layer    Maximum-Head-Change  Column Row Layer    Maximum-Flux-Residual          L2-NORM 
          0                 1           2             5    8     1       0.1179287016E+00       5    8    1         0.6412771405E+01      0.1142502342E+02
          0                 2           2             5    8     1       0.3093909814E-01       5    8    1         0.1716618278E+01      0.1959796229E+01
          0                 3           2             5    8     1       0.5846317055E-02       5    8    1         0.3218885548E+00      0.3287289416E+00
          0                 4           1             5    8     1      -0.5683952452E-03       5    8    1        -0.3223030142E-01      0.3233316003E-01
          0                 5           1             5    8     1       0.3867779656E-04       5    8    1         0.2256815413E-02      0.2257550892E-02

    ------------------------------------------------
       NWT REQUIRED            5 OUTER ITERATIONS 
       AND A TOTAL OF          8 INNER ITERATIONS.
    ------------------------------------------------

 NO OUTPUT CONTROL FOR STRESS PERIOD   34   TIME STEP    8
 
 SOLVING FOR HEAD 
                                                   Max.-Head-Change                         Max.-Flux-Residual
  Residual-Control   Outer-Iter.   Inner-Iter.     Column Row Layer    Maximum-Head-Change  Column Row Layer    Maximum-Flux-Residual          L2-NORM 
          0                 1           2             5    8     1       0.1098233809E+00       5    8    1         0.5962064144E+01      0.1103434821E+02
          0                 2           2             5    8     1      -0.1067750713E-01       5    8    1        -0.5959078584E+00      0.1103258731E+01
          0                 3           2             5    8     1       0.7265745180E-03       5    8    1         0.4168298638E-01      0.7721167052E-01
          0                 4           1             5    8     1      -0.2887652508E-04       5    8    1        -0.1702765434E-02      0.3156842271E-02

    ------------------------------------------------
       NWT REQUIRED            4 OUTER ITERATIONS 
       AND A TOTAL OF          7 INNER ITERATIONS.
    ------------------------------------------------

 NO OUTPUT CONTROL FOR STRESS PERIOD   34   TIME STEP    9
 
 SOLVING FOR HEAD 
                                                   Max.-Head-Change                         Max.-Flux-Residual
  Residual-Control   Outer-Iter.   Inner-Iter.     Column Row Layer    Maximum-Head-Change  Column Row Layer    Maximum-Flux-Residual          L2-NORM 
          0                 1           2             5    8     1       0.1052107133E+00       5    8    1         0.5706944483E+01      0.1073464957E+02
          0                 2           2             5    8     1      -0.1022903014E-01       5    8    1        -0.5704074839E+00      0.1073299194E+01
          0                 3           2             5    8     1       0.6960570465E-03       5    8    1         0.3989925288E-01      0.7511543725E-01
          0                 4           1             5    8     1      -0.2766365765E-04       5    8    1        -0.1629897600E-02      0.3071172041E-02

    ------------------------------------------------
       NWT REQUIRED            4 OUTER ITERATIONS 
       AND A TOTAL OF          7 INNER ITERATIONS.
    ------------------------------------------------

 NO OUTPUT CONTROL FOR STRESS PERIOD   34   TIME STEP   10
 
 SOLVING FOR HEAD 
                                                   Max.-Head-Change                         Max.-Flux-Residual
  Residual-Control   Outer-Iter.   Inner-Iter.     Column Row Layer    Maximum-Head-Change  Column Row Layer    Maximum-Flux-Residual          L2-NORM 
          0                 1           2             5    8     1       0.1008739219E+00       5    8    1         0.5467249456E+01      0.1045050709E+02
          0                 2           2             5    8     1      -0.9807377056E-02       5    8    1        -0.5464489657E+00      0.1044894508E+01
          0                 3           2             5    8     1       0.6673648472E-03       5    8    1         0.3822337121E-01      0.7312797567E-01
          0                 4           1             5    8     1      -0.2652333258E-04       5    8    1        -0.1561435697E-02      0.2989943709E-02

    ------------------------------------------------
       NWT REQUIRED            4 OUTER ITERATIONS 
       AND A TOTAL OF          7 INNER ITERATIONS.
    ------------------------------------------------

 NO OUTPUT CONTROL FOR STRESS PERIOD   34   TIME STEP   11
 
 SOLVING FOR HEAD 
                                                   Max.-Head-Change                         Max.-Flux-Residual
  Residual-Control   Outer-Iter.   Inner-Iter.     Column Row Layer    Maximum-Head-Change  Column Row Layer    Maximum-Flux-Residual          L2-NORM 
          0                 1           2             5    8     1       0.9679364776E-01       5    8    1         0.5241888992E+01      0.1018074495E+02
          0                 2           2             5    8     1      -0.9410665441E-02       5    8    1        -0.5239233305E+00      0.1017927231E+01
          0                 3           2             5    8     1       0.6403698272E-03       5    8    1         0.3664771880E-01      0.7124107149E-01
          0                 4           1             5    8     1      -0.2545045882E-04       5    8    1        -0.1497068316E-02      0.2912824539E-02

    ------------------------------------------------
       NWT REQUIRED            4 OUTER ITERATIONS 
       AND A TOTAL OF          7 INNER ITERATIONS.
    ------------------------------------------------

 NO OUTPUT CONTROL FOR STRESS PERIOD   34   TIME STEP   12
 
 SOLVING FOR HEAD 
                                                   Max.-Head-Change                         Max.-Flux-Residual
  Residual-Control   Outer-Iter.   Inner-Iter.     Column Row Layer    Maximum-Head-Change  Column Row Layer    Maximum-Flux-Residual          L2-NORM 
          0                 1           2             5    8     1       0.9295220387E-01       5    8    1         0.5029867163E+01      0.9924299398E+01
          0                 2           2             5    8     1      -0.9037175463E-02       5    8    1        -0.5027310166E+00      0.9922909433E+00
          0                 3           2             5    8     1       0.6149549593E-03       5    8    1         0.3516533134E-01      0.6944727733E-01
          0                 4           1             5    8     1      -0.2444038590E-04       5    8    1        -0.1436511019E-02      0.2839509116E-02

    ------------------------------------------------
       NWT REQUIRED            4 OUTER ITERATIONS 
       AND A TOTAL OF          7 INNER ITERATIONS.
    ------------------------------------------------

 NO OUTPUT CONTROL FOR STRESS PERIOD   34   TIME STEP   13
 
 SOLVING FOR HEAD 
                                                   Max.-Head-Change                         Max.-Flux-Residual
  Residual-Control   Outer-Iter.   Inner-Iter.     Column Row Layer    Maximum-Head-Change  Column Row Layer    Maximum-Flux-Residual          L2-NORM 
          0                 1           2             4    8     1       0.1566245181E+00       4    8    1         0.8396770757E+01      0.1230514797E+02
          0                 2           2             5    8     1       0.1402208099E-01       5    8    1         0.7552929190E+00      0.1321253459E+01
          0                 3           2             5    8     1       0.3796883426E-02       5    8    1         0.2047958150E+00      0.3107716477E+00
          0                 4           2             5    8     1       0.1028265069E-02       5    8    1         0.5543559755E-01      0.8345005723E-01
          0                 5           2             5    8     1       0.2785125897E-03       5    8    1         0.1501502446E-01      0.2262713399E-01
          0                 6           1             5    8     1       0.7544762519E-04       5    8    1         0.4066974389E-02      0.6139458022E-02

    ------------------------------------------------
       NWT REQUIRED            6 OUTER ITERATIONS 
       AND A TOTAL OF         11 INNER ITERATIONS.
    ------------------------------------------------

 NO OUTPUT CONTROL FOR STRESS PERIOD   34   TIME STEP   14
 
 SOLVING FOR HEAD 
                                                   Max.-Head-Change                         Max.-Flux-Residual
  Residual-Control   Outer-Iter.   Inner-Iter.     Column Row Layer    Maximum-Head-Change  Column Row Layer    Maximum-Flux-Residual          L2-NORM 
          0                 1           2             5    7     1       0.1767868679E+00       5    7    1         0.9598857151E+01      0.1478247349E+02
          0                 2           2             4    8     1       0.3979140718E-01       4    8    1         0.2141961684E+01      0.2796605059E+01
          0                 3           2             5    8     1       0.6581370516E-02       5    8    1         0.3619411958E+00      0.4948690577E+00
          0                 4           2             5    8     1       0.1753789913E-02       5    8    1         0.9547431074E-01      0.1218547173E+00
          0                 5           2             5    8     1       0.4674195384E-03       5    8    1         0.2550398070E-01      0.3244169713E-01
          0                 6           1             5    8     1       0.1245950283E-03       5    8    1         0.6795101500E-02      0.8675200607E-02
          0                 7           1             5    8     1       0.3321675670E-04       5    8    1         0.1811348067E-02      0.2320595940E-02

    ------------------------------------------------
       NWT REQUIRED            7 OUTER ITERATIONS 
       AND A TOTAL OF         12 INNER ITERATIONS.
    ------------------------------------------------

 NO OUTPUT CONTROL FOR STRESS PERIOD   34   TIME STEP   15
 
 SOLVING FOR HEAD 
                                                   Max.-Head-Change                         Max.-Flux-Residual
  Residual-Control   Outer-Iter.   Inner-Iter.     Column Row Layer    Maximum-Head-Change  Column Row Layer    Maximum-Flux-Residual          L2-NORM 
          0                 1           2             5    6     1       0.1589904739E+00       5    6    1         0.8628679660E+01      0.1563099178E+02
          0                 2           2             5    7     1       0.2314593251E-01       5    7    1         0.1295833006E+01      0.1829427462E+01
          0                 3           2             5    7     1      -0.2250322839E-02       5    7    1        -0.1289867648E+00      0.1578114384E+00
          0                 4           2             5    7     1       0.1531292666E-03       5    7    1         0.8986616784E-02      0.9746686586E-02
          0                 5           1             5    7     1      -0.6085902381E-05       5    7    1        -0.3656880272E-03      0.3693943903E-03

    ------------------------------------------------
       NWT REQUIRED            5 OUTER ITERATIONS 
       AND A TOTAL OF          9 INNER ITERATIONS.
    ------------------------------------------------

 NO OUTPUT CONTROL FOR STRESS PERIOD   34   TIME STEP   16
 
 SOLVING FOR HEAD 
                                                   Max.-Head-Change                         Max.-Flux-Residual
  Residual-Control   Outer-Iter.   Inner-Iter.     Column Row Layer    Maximum-Head-Change  Column Row Layer    Maximum-Flux-Residual          L2-NORM 
          0                 1           2             4    8     1       0.1365104288E+00       4    8    1         0.7299091243E+01      0.1450250410E+02
          0                 2           2             4    8     1      -0.1327208358E-01       4    8    1        -0.7295468525E+00      0.1449627455E+01
          0                 3           2             4    8     1       0.9031073870E-03       4    8    1         0.5103008570E-01      0.1014114270E+00
          0                 4           1             4    8     1      -0.3589134210E-04       4    8    1        -0.2084559520E-02      0.4143498158E-02

    ------------------------------------------------
       NWT REQUIRED            4 OUTER ITERATIONS 
       AND A TOTAL OF          7 INNER ITERATIONS.
    ------------------------------------------------

 NO OUTPUT CONTROL FOR STRESS PERIOD   34   TIME STEP   17
 
 SOLVING FOR HEAD 
                                                   Max.-Head-Change                         Max.-Flux-Residual
  Residual-Control   Outer-Iter.   Inner-Iter.     Column Row Layer    Maximum-Head-Change  Column Row Layer    Maximum-Flux-Residual          L2-NORM 
          0                 1           2             4    8     1       0.1326924117E+00       4    8    1         0.7090847901E+01      0.1413831728E+02
          0                 2           2             4    8     1      -0.1290086433E-01       4    8    1        -0.7087315444E+00      0.1413228879E+01
          0                 3           2             4    8     1       0.8778475474E-03       4    8    1         0.4957408956E-01      0.9886561572E-01
          0                 4           1             4    8     1      -0.3488745683E-04       4    8    1        -0.2025081122E-02      0.4039514896E-02

    ------------------------------------------------
       NWT REQUIRED            4 OUTER ITERATIONS 
       AND A TOTAL OF          7 INNER ITERATIONS.
    ------------------------------------------------

 NO OUTPUT CONTROL FOR STRESS PERIOD   34   TIME STEP   18
 
 SOLVING FOR HEAD 
                                                   Max.-Head-Change                         Max.-Flux-Residual
  Residual-Control   Outer-Iter.   Inner-Iter.     Column Row Layer    Maximum-Head-Change  Column Row Layer    Maximum-Flux-Residual          L2-NORM 
          0                 1           2             4    8     1       0.1296384543E+00       4    8    1         0.6892536704E+01      0.1474841229E+02
          0                 2           2             4    7     1       0.2850586730E-01       4    7    1         0.1563806282E+01      0.2304898192E+01
          0                 3           2             5    6     1       0.6679640413E-02       5    6    1         0.3675223388E+00      0.4052531255E+00
          0                 4           2             5    6     1       0.1753085374E-02       5    6    1         0.9672974301E-01      0.9751902856E-01
          0                 5           2             5    6     1       0.4601010170E-03       5    6    1         0.2537663625E-01      0.2542430978E-01
          0                 6           2             5    6     1       0.1207545344E-03       5    6    1         0.6660042867E-02      0.6672009909E-02
          0                 7           1             5    6     1       0.3169230338E-04       5    6    1         0.1747945139E-02      0.1751233488E-02

    ------------------------------------------------
       NWT REQUIRED            7 OUTER ITERATIONS 
       AND A TOTAL OF         13 INNER ITERATIONS.
    ------------------------------------------------

 NO OUTPUT CONTROL FOR STRESS PERIOD   34   TIME STEP   19
 
 SOLVING FOR HEAD 
                                                   Max.-Head-Change                         Max.-Flux-Residual
  Residual-Control   Outer-Iter.   Inner-Iter.     Column Row Layer    Maximum-Head-Change  Column Row Layer    Maximum-Flux-Residual          L2-NORM 
          0                 1           2             4    7     1       0.1573706101E+00       4    7    1         0.8336731543E+01      0.1534777590E+02
          0                 2           2             4    8     1       0.3410754266E-01       4    8    1         0.1866453229E+01      0.2468259874E+01
          0                 3           2             4    8     1       0.9159430056E-02       4    8    1         0.4957592648E+00      0.5204376622E+00
          0                 4           2             4    8     1       0.2459734121E-02       4    8    1         0.1334769851E+00      0.1350531847E+00
          0                 5           2             4    8     1       0.6605523307E-03       4    8    1         0.3583081194E-01      0.3616888082E-01
          0                 6           2             4    8     1       0.1773886153E-03       4    8    1         0.9622310919E-02      0.9709037530E-02
          0                 7           1             4    8     1       0.4763691615E-04       4    8    1         0.2584022426E-02      0.2606422235E-02

    ------------------------------------------------
       NWT REQUIRED            7 OUTER ITERATIONS 
       AND A TOTAL OF         13 INNER ITERATIONS.
    ------------------------------------------------

 NO OUTPUT CONTROL FOR STRESS PERIOD   34   TIME STEP   20
 
 SOLVING FOR HEAD 
                                                   Max.-Head-Change                         Max.-Flux-Residual
  Residual-Control   Outer-Iter.   Inner-Iter.     Column Row Layer    Maximum-Head-Change  Column Row Layer    Maximum-Flux-Residual          L2-NORM 
          0                 1           2             4    7     1       0.1553954867E+00       4    7    1         0.8233735905E+01      0.1498396180E+02
          0                 2           2             5    7     1       0.3265287006E-01       5    7    1         0.1830833076E+01      0.2205114995E+01
          0                 3           2             5    7     1       0.8561683356E-02       5    7    1         0.4706039331E+00      0.4786173698E+00
          0                 4           2             5    7     1       0.2244911541E-02       5    7    1         0.1239860124E+00      0.1240210504E+00
          0                 5           2             5    7     1       0.5886256323E-03       5    7    1         0.3248570957E-01      0.3248701543E-01
          0                 6           2             5    7     1       0.1543402625E-03       5    7    1         0.8518252803E-02      0.8518527143E-02
          0                 7           1             5    7     1       0.4046870539E-04       5    7    1         0.2233502436E-02      0.2233579573E-02

    ------------------------------------------------
       NWT REQUIRED            7 OUTER ITERATIONS 
       AND A TOTAL OF         13 INNER ITERATIONS.
    ------------------------------------------------

 NO OUTPUT CONTROL FOR STRESS PERIOD   34   TIME STEP   21
 
 SOLVING FOR HEAD 
                                                   Max.-Head-Change                         Max.-Flux-Residual
  Residual-Control   Outer-Iter.   Inner-Iter.     Column Row Layer    Maximum-Head-Change  Column Row Layer    Maximum-Flux-Residual          L2-NORM 
          0                 1           2             4    7     1       0.1533337126E+00       4    7    1         0.8127077492E+01      0.1466908297E+02
          0                 2           2             4    7     1      -0.1487260963E-01       4    7    1        -0.8123024538E+00      0.1358066063E+01
          0                 3           2             4    7     1       0.1012229544E-02       4    7    1         0.5681834383E-01      0.9705735228E-01
          0                 4           1             5    8     1       0.1057121449E-03       5    8    1         0.5883561081E-02      0.7033874428E-02
          0                 5           1             5    8     1       0.2773157728E-04       5    8    1         0.1529275618E-02      0.1530312462E-02

    ------------------------------------------------
       NWT REQUIRED            5 OUTER ITERATIONS 
       AND A TOTAL OF          8 INNER ITERATIONS.
    ------------------------------------------------

 NO OUTPUT CONTROL FOR STRESS PERIOD   34   TIME STEP   22
 
 SOLVING FOR HEAD 
                                                   Max.-Head-Change                         Max.-Flux-Residual
  Residual-Control   Outer-Iter.   Inner-Iter.     Column Row Layer    Maximum-Head-Change  Column Row Layer    Maximum-Flux-Residual          L2-NORM 
          0                 1           2             4    7     1       0.1515489418E+00       4    7    1         0.7968586297E+01      0.1600891057E+02
          0                 2           2             4    7     1       0.2781355414E-01       4    7    1         0.1535506609E+01      0.2249925290E+01
          0                 3           2             4    7     1       0.7406281208E-02       4    7    1         0.4031965878E+00      0.5215448644E+00
          0                 4           2             4    7     1       0.1972151907E-02       4    7    1         0.1077180101E+00      0.1372066733E+00
          0                 5           2             4    7     1       0.5251424660E-03       4    7    1         0.2866859333E-01      0.3633676156E-01
          0                 6           1             4    7     1       0.1398333687E-03       4    7    1         0.7634438331E-02      0.9631242500E-02
          0                 7           1             4    7     1       0.3723414595E-04       4    7    1         0.2032848299E-02      0.2552824569E-02

    ------------------------------------------------
       NWT REQUIRED            7 OUTER ITERATIONS 
       AND A TOTAL OF         12 INNER ITERATIONS.
    ------------------------------------------------

 NO OUTPUT CONTROL FOR STRESS PERIOD   34   TIME STEP   23
 
 SOLVING FOR HEAD 
                                                   Max.-Head-Change                         Max.-Flux-Residual
  Residual-Control   Outer-Iter.   Inner-Iter.     Column Row Layer    Maximum-Head-Change  Column Row Layer    Maximum-Flux-Residual          L2-NORM 
          0                 1           2             4    7     1       0.1472605767E+00       4    7    1         0.7737637907E+01      0.1570965891E+02
          0                 2           2             4    6     1       0.3823464472E-01       4    6    1         0.2082680261E+01      0.2690905370E+01
          0                 3           2             4    6     1       0.1019717830E-01       4    6    1         0.5564032251E+00      0.5902123074E+00
          0                 4           2             4    6     1       0.2719572809E-02       4    6    1         0.1482254099E+00      0.1492928093E+00
          0                 5           2             4    6     1       0.7253069460E-03       4    6    1         0.3954501263E-01      0.3956326109E-01
          0                 6           2             4    6     1       0.1934385511E-03       4    6    1         0.1054604478E-01      0.1054627596E-01
          0                 7           1             4    6     1       0.5158984841E-04       4    6    1         0.2812643265E-02      0.2812672721E-02

    ------------------------------------------------
       NWT REQUIRED            7 OUTER ITERATIONS 
       AND A TOTAL OF         13 INNER ITERATIONS.
    ------------------------------------------------

 NO OUTPUT CONTROL FOR STRESS PERIOD   34   TIME STEP   24
 
 SOLVING FOR HEAD 
                                                   Max.-Head-Change                         Max.-Flux-Residual
  Residual-Control   Outer-Iter.   Inner-Iter.     Column Row Layer    Maximum-Head-Change  Column Row Layer    Maximum-Flux-Residual          L2-NORM 
          0                 1           2             4    7     1       0.1452968215E+00       4    7    1         0.7636929622E+01      0.1538281822E+02
          0                 2           2             4    7     1      -0.1382442881E-01       4    7    1        -0.7632995499E+00      0.1139694253E+01
          0                 3           2             4    7     1       0.9536610972E-03       4    7    1         0.5345407633E-01      0.1001303934E+00
          0                 4           2             4    8     1       0.2261101659E-03       4    8    1         0.1231075422E-01      0.1756104606E-01
          0                 5           1             4    8     1       0.6071328300E-04       5    6    1        -0.3434309215E-02      0.4758310426E-02

    ------------------------------------------------
       NWT REQUIRED            5 OUTER ITERATIONS 
       AND A TOTAL OF          9 INNER ITERATIONS.
    ------------------------------------------------

 NO OUTPUT CONTROL FOR STRESS PERIOD   34   TIME STEP   25
 
 SOLVING FOR HEAD 
                                                   Max.-Head-Change                         Max.-Flux-Residual
  Residual-Control   Outer-Iter.   Inner-Iter.     Column Row Layer    Maximum-Head-Change  Column Row Layer    Maximum-Flux-Residual          L2-NORM 
          0                 1           2             4    7     1       0.1438942533E+00       4    7    1         0.7566223979E+01      0.1510977049E+02
          0                 2           2             4    8     1       0.3024467784E-01       4    8    1         0.1656137961E+01      0.2470779616E+01
          0                 3           2             4    8     1       0.8121483327E-02       4    8    1         0.4395353263E+00      0.5826337516E+00
          0                 4           2             4    8     1       0.2180860385E-02       4    8    1         0.1183503957E+00      0.1542235557E+00
          0                 5           2             4    8     1       0.5856309894E-03       4    8    1         0.3176739093E-01      0.4109992592E-01
          0                 6           2             4    8     1       0.1572620208E-03       4    8    1         0.8530675300E-02      0.1096469831E-01
          0                 7           1             4    8     1       0.4223059850E-04       4    8    1         0.2290769866E-02      0.2926492303E-02

    ------------------------------------------------
       NWT REQUIRED            7 OUTER ITERATIONS 
       AND A TOTAL OF         13 INNER ITERATIONS.
    ------------------------------------------------

 NO OUTPUT CONTROL FOR STRESS PERIOD   34   TIME STEP   26
 
 SOLVING FOR HEAD 
                                                   Max.-Head-Change                         Max.-Flux-Residual
  Residual-Control   Outer-Iter.   Inner-Iter.     Column Row Layer    Maximum-Head-Change  Column Row Layer    Maximum-Flux-Residual          L2-NORM 
          0                 1           2             4    7     1       0.1430366338E+00       4    7    1         0.7525513187E+01      0.1481739039E+02
          0                 2           2             5    7     1       0.2966149523E-01       5    7    1         0.1638496585E+01      0.2283457122E+01
          0                 3           2             5    7     1       0.7776735634E-02       5    7    1         0.4297249444E+00      0.4511295144E+00
          0                 4           2             5    7     1       0.2038934010E-02       5    7    1         0.1124732581E+00      0.1127938784E+00
          0                 5           2             5    7     1       0.5345757248E-03       5    7    1         0.2950892214E-01      0.2951069347E-01
          0                 6           2             5    7     1       0.1401571662E-03       5    7    1         0.7735383097E-02      0.7735716392E-02
          0                 7           1             5    7     1       0.3674695977E-04       5    7    1         0.2028142041E-02      0.2028217832E-02

    ------------------------------------------------
       NWT REQUIRED            7 OUTER ITERATIONS 
       AND A TOTAL OF         13 INNER ITERATIONS.
    ------------------------------------------------

 NO OUTPUT CONTROL FOR STRESS PERIOD   34   TIME STEP   27
 
 SOLVING FOR HEAD 
                                                   Max.-Head-Change                         Max.-Flux-Residual
  Residual-Control   Outer-Iter.   Inner-Iter.     Column Row Layer    Maximum-Head-Change  Column Row Layer    Maximum-Flux-Residual          L2-NORM 
          0                 1           2             4    7     1       0.1421520274E+00       4    7    1         0.7484232838E+01      0.1454553400E+02
          0                 2           2             4    7     1       0.3113020688E-01       4    7    1         0.1708177578E+01      0.2044419253E+01
          0                 3           2             4    7     1       0.8324189139E-02       4    7    1         0.4520813868E+00      0.4591206923E+00
          0                 4           1             4    7     1       0.2225879112E-02       4    7    1         0.1211538941E+00      0.1211937400E+00
          0                 5           1             4    7     1       0.5951975239E-03       4    7    1         0.3238618531E-01      0.3238701122E-01
          0                 6           1             4    7     1       0.1591551492E-03       4    7    1         0.8660450832E-02      0.8660542116E-02
          0                 7           1             4    7     1       0.4255790794E-04       4    7    1         0.2315777622E-02      0.2315804998E-02

    ------------------------------------------------
       NWT REQUIRED            7 OUTER ITERATIONS 
       AND A TOTAL OF         10 INNER ITERATIONS.
    ------------------------------------------------

 NO OUTPUT CONTROL FOR STRESS PERIOD   34   TIME STEP   28
 
 SOLVING FOR HEAD 
                                                   Max.-Head-Change                         Max.-Flux-Residual
  Residual-Control   Outer-Iter.   Inner-Iter.     Column Row Layer    Maximum-Head-Change  Column Row Layer    Maximum-Flux-Residual          L2-NORM 
          0                 1           2             4    7     1       0.1377343895E+00       4    7    1         0.7246755094E+01      0.1428842865E+02
          0                 2           2             4    6     1       0.2054687301E-01       4    6    1         0.1120544987E+01      0.1615412625E+01
          0                 3           2             4    6     1       0.5479550671E-02       4    6    1         0.2989741893E+00      0.3122283083E+00
          0                 4           2             4    6     1       0.1461314061E-02       4    6    1         0.7964274878E-01      0.7978545644E-01
          0                 5           2             4    6     1       0.3897108551E-03       4    6    1         0.2124823554E-01      0.2124887898E-01
          0                 6           1             4    6     1       0.1039301247E-03       4    6    1         0.5666239176E-02      0.5666323097E-02
          0                 7           1             4    6     1       0.2771662890E-04       4    6    1         0.1511116654E-02      0.1511135383E-02

    ------------------------------------------------
       NWT REQUIRED            7 OUTER ITERATIONS 
       AND A TOTAL OF         12 INNER ITERATIONS.
    ------------------------------------------------

 NO OUTPUT CONTROL FOR STRESS PERIOD   34   TIME STEP   29
 
 SOLVING FOR HEAD 
                                                   Max.-Head-Change                         Max.-Flux-Residual
  Residual-Control   Outer-Iter.   Inner-Iter.     Column Row Layer    Maximum-Head-Change  Column Row Layer    Maximum-Flux-Residual          L2-NORM 
          0                 1           2             4    7     1       0.1355088317E+00       4    7    1         0.7130611588E+01      0.1403346154E+02
          0                 2           2             4    6     1       0.2849103416E-01       4    6    1         0.1571245564E+01      0.2005332411E+01
          0                 3           2             4    6     1      -0.2769996138E-02       4    6    1        -0.1565459297E+00      0.1794981065E+00
          0                 4           2             4    6     1       0.1884901520E-03       4    6    1         0.1091641664E-01      0.1151168251E-01
          0                 5           1             4    6     1      -0.7491166679E-05       4    6    1        -0.4446018552E-03      0.4476263066E-03

    ------------------------------------------------
       NWT REQUIRED            5 OUTER ITERATIONS 
       AND A TOTAL OF          9 INNER ITERATIONS.
    ------------------------------------------------

 NO OUTPUT CONTROL FOR STRESS PERIOD   34   TIME STEP   30



 STREAM LISTING     PERIOD     34   STEP       30

 LAYER ROW COL. STREAM  RCH.  FLOW INTO     FLOW TO   FLOW OUT OF   OVRLND.     DIRECT     STREAM       STREAM     STREAM     STREAM   STREAMBED  STREAMBED
                SEG.NO.  NO.  STRM. RCH.    AQUIFER    STRM. RCH.    RUNOFF     PRECIP       ET          HEAD       DEPTH      WIDTH   CONDCTNC.   GRADIENT

   1    1    1     1     1    1.9000E+01  2.1427E-01   1.8786E+01  0.000E+00  0.000E+00  0.000E+00  1.09413E+03  1.082E+00  1.166E+01  5.249E-02  1.361E+00
   1    2    2     1     2    1.8786E+01  3.3054E-01   1.8455E+01  0.000E+00  0.000E+00  0.000E+00  1.08914E+03  1.077E+00  1.158E+01  8.107E-02  1.359E+00
   1    3    3     1     3    1.8455E+01  2.8064E-01   1.8175E+01  0.000E+00  0.000E+00  0.000E+00  1.08349E+03  1.072E+00  1.149E+01  6.892E-02  1.357E+00
   1    3    4     1     4    1.8175E+01  2.5740E-01   1.7917E+01  0.000E+00  0.000E+00  0.000E+00  1.07848E+03  1.068E+00  1.140E+01  6.328E-02  1.356E+00
   1    4    5     2     1    1.5917E+01  3.0542E-01   1.5612E+01  0.000E+00  0.000E+00  0.000E+00  1.07285E+03  9.157E-01  1.200E+01  7.800E-02  1.305E+00
   1    5    6     2     2    1.5612E+01  2.3438E-01   1.5377E+01  0.000E+00  0.000E+00  0.000E+00  1.06742E+03  9.063E-01  1.200E+01  6.000E-02  1.302E+00
   1    6    6     2     3    1.5377E+01  2.3388E-01   1.5143E+01  0.000E+00  0.000E+00  0.000E+00  1.06269E+03  8.980E-01  1.200E+01  6.000E-02  1.299E+00
   1    7    6     2     4    1.5143E+01  2.3338E-01   1.4910E+01  0.000E+00  0.000E+00  0.000E+00  1.05797E+03  8.897E-01  1.200E+01  6.000E-02  1.297E+00
   1    8    6     2     5    1.4910E+01  2.3289E-01   1.4677E+01  0.000E+00  0.000E+00  0.000E+00  1.05324E+03  8.814E-01  1.200E+01  6.000E-02  1.294E+00
   1    3    5     3     1    2.0000E+00  2.8252E-01   1.7175E+00  0.000E+00  0.000E+00  0.000E+00  1.07555E+03  1.909E+00  9.636E+00  7.227E-02  1.955E+00
   1    3    6     3     2    1.7175E+00  2.4905E-01   1.4684E+00  0.000E+00  0.000E+00  0.000E+00  1.07264E+03  1.727E+00  8.909E+00  6.682E-02  1.864E+00
   1    3    7     3     3    1.4684E+00  1.9718E-01   1.2712E+00  0.000E+00  0.000E+00  0.000E+00  1.06987E+03  1.555E+00  8.218E+00  5.547E-02  1.777E+00
   1    4    8     3     4    1.2712E+00  2.2567E-01   1.0456E+00  0.000E+00  0.000E+00  0.000E+00  1.06682E+03  1.364E+00  7.455E+00  6.709E-02  1.682E+00
   1    5    8     3     5    1.0456E+00  1.5790E-01   8.8768E-01  0.000E+00  0.000E+00  0.000E+00  1.06362E+03  1.164E+00  6.655E+00  4.991E-02  1.582E+00
   1    6    8     3     6    8.8768E-01  5.5980E-02   8.3170E-01  0.000E+00  0.000E+00  0.000E+00  1.06158E+03  1.036E+00  6.145E+00  1.844E-02  1.518E+00
   1    5   10     4     1    1.0000E+01  9.0919E-02   9.9091E+00  0.000E+00  0.000E+00  0.000E+00  1.07836E+03  6.368E-01  1.000E+01  2.500E-02  1.212E+00
   1    5    9     4     2    9.9091E+00  1.8158E-01   9.7275E+00  0.000E+00  0.000E+00  0.000E+00  1.07154E+03  6.315E-01  1.000E+01  5.000E-02  1.211E+00
   1    6    8     4     3    9.7275E+00  1.2689E-01   9.6006E+00  0.000E+00  0.000E+00  0.000E+00  1.06381E+03  6.256E-01  1.000E+01  3.500E-02  1.209E+00
   1    6    8     5     1    1.0432E+01  2.2686E-01   1.0205E+01  0.000E+00  0.000E+00  0.000E+00  1.05868E+03  6.790E-01  1.542E+01  6.166E-02  1.226E+00
   1    7    7     5     2    1.0205E+01  2.7894E-01   9.9265E+00  0.000E+00  0.000E+00  0.000E+00  1.05417E+03  6.732E-01  1.519E+01  7.594E-02  1.224E+00
   1    8    7     5     3    9.9265E+00  1.9221E-01   9.7343E+00  0.000E+00  0.000E+00  0.000E+00  1.04992E+03  6.676E-01  1.497E+01  5.241E-02  1.223E+00
   1    8    6     5     4    9.7343E+00  1.3577E-01   9.5985E+00  0.000E+00  0.000E+00  0.000E+00  1.04691E+03  6.637E-01  1.482E+01  3.706E-02  1.221E+00
   1    9    6     6     1    2.4276E+01  2.5176E-01   2.4024E+01  0.000E+00  0.000E+00  0.000E+00  1.04392E+03  1.196E+00  1.200E+01  6.000E-02  1.399E+00
   1   10    7     6     2    2.4024E+01  2.5131E-01   2.3773E+01  0.000E+00  0.000E+00  0.000E+00  1.03937E+03  1.188E+00  1.200E+01  6.000E-02  1.396E+00
   1   11    7     6     3    2.3773E+01  2.5086E-01   2.3522E+01  0.000E+00  0.000E+00  0.000E+00  1.03482E+03  1.181E+00  1.200E+01  6.000E-02  1.394E+00
   1   12    7     6     4    2.3522E+01  2.5041E-01   2.3271E+01  0.000E+00  0.000E+00  0.000E+00  1.03026E+03  1.173E+00  1.200E+01  6.000E-02  1.391E+00
   1   13    7     6     5    2.3271E+01  7.1229E-03   2.3264E+01  0.000E+00  0.000E+00  0.000E+00  1.02708E+03  1.170E+00  1.200E+01  2.400E-02  9.893E-02
   1   14    9     7     1    1.5000E+02  1.3538E+00   1.4865E+02  0.000E+00  0.000E+00  0.000E+00  1.03987E+03  2.288E+00  5.529E+01  5.593E-01  8.069E-01
   1   13    8     7     2    1.4865E+02  1.9188E+00   1.4673E+02  0.000E+00  0.000E+00  0.000E+00  1.03478E+03  2.279E+00  5.526E+01  6.148E-01  1.040E+00
   1   13    7     7     3    1.4673E+02  1.6233E+00   1.4510E+02  0.000E+00  0.000E+00  0.000E+00  1.02969E+03  2.270E+00  5.521E+01  5.584E-01  9.690E-01
   1   13    6     8     1    1.6837E+02  1.0623E+00   1.6731E+02  0.000E+00  0.000E+00  0.000E+00  1.02481E+03  2.938E+00  4.260E+01  4.341E-01  8.157E-01
   1   13    5     8     2    1.6731E+02  3.0718E-01   1.6700E+02  0.000E+00  0.000E+00  0.000E+00  1.01856E+03  2.934E+00  4.254E+01  4.335E-01  2.362E-01
   1   13    4     8     3    1.6700E+02 -1.9932E+00   1.6899E+02  0.000E+00  0.000E+00  0.000E+00  1.01231E+03  2.939E+00  4.262E+01  4.343E+00 -1.530E-01
   1   13    3     8     4    1.6899E+02 -3.4358E+00   1.7243E+02  0.000E+00  0.000E+00  0.000E+00  1.00608E+03  2.957E+00  4.287E+01  4.369E+00 -2.621E-01
   1   13    2     8     5    1.7243E+02 -2.5244E+00   1.7495E+02  0.000E+00  0.000E+00  0.000E+00  9.99851E+02  2.976E+00  4.315E+01  4.397E+00 -1.914E-01
   1   13    1     8     6    1.7495E+02 -1.9689E+00   1.7692E+02  0.000E+00  0.000E+00  0.000E+00  9.94865E+02  2.990E+00  4.336E+01  2.651E+00 -2.475E-01





UNSATURATED ZONE PACKAGE VOLUMETRIC BUDGET FOR  TIME STEP    30 STRESS PERIOD   34
  ------------------------------------------------------------------------------



     CUMULATIVE VOLUMES      L**3       RATES FOR THIS TIME STEP      L**3/T
     ------------------                 ------------------------

           IN:                                      IN:
           ---                                      ---
        INFILTRATION =  1793583976.8518          INFILTRATION =          15.3575

          OUT:                                     OUT:
          ----                                     ----
              UZF ET =  1487077282.4801                UZF ET =          15.3575
        UZF RECHARGE =   193243280.0060          UZF RECHARGE =          29.6006

            IN - OUT =   113263414.3657              IN - OUT =         -29.6006

          STORAGE:                                 STORAGE:
          --------                                 --------
      STORAGE CHANGE =   113264918.6959        STORAGE CHANGE =         -29.6006

 PERCENT DISCREPANCY IS DIFFERENCE BETWEEN IN-OUT MINUS CHANGE IN STORAGE
 DIVIDED BY THE AVERAGE OF IN AND OUT TIMES 100

 PERCENT DISCREPANCY =          -0.00     PERCENT DISCREPANCY =           0.00






1
  VOLUMETRIC BUDGET FOR AGRICULTURAL FIELDS AT TIME STEP   30, STRESS PERIOD  34
  ------------------------------------------------------------------------------

     CUMULATIVE VOLUMES      L**3       RATES FOR THIS TIME STEP      L**3/T
     ------------------                 ------------------------

           IN:                                      IN:
           ---                                      ---
               AG WELLS  =  1410983296.0000                 AG WELLS  =          10.9500
      DIVERSION SEGMENTS =           0.0000        DIVERSION SEGMENTS =           0.0000
           GW IRRIGATION =           0.0000             GW IRRIGATION =           0.0000
           SW IRRIGATION =           0.0000             SW IRRIGATION =           0.0000
        SYSTEM LOSSES GW =           0.0000          SYSTEM LOSSES GW =           0.0000
        SYSTEM LOSSES SW =           0.0000          SYSTEM LOSSES SW =           0.0000

                TOTAL IN =  1410983296.0000                  TOTAL IN =          10.9500

          OUT:                                     OUT:
          ----                                     ----
               AG WELLS  =           0.0000                 AG WELLS  =           0.0000
      DIVERSION SEGMENTS =           0.0000        DIVERSION SEGMENTS =           0.0000
           GW IRRIGATION =  1410983296.0000             GW IRRIGATION =          10.9500
           SW IRRIGATION =           0.0000             SW IRRIGATION =           0.0000
        SYSTEM LOSSES GW =           0.0000          SYSTEM LOSSES GW =           0.0000
        SYSTEM LOSSES SW =           0.0000          SYSTEM LOSSES SW =           0.0000

               TOTAL OUT =  1410983296.0000                 TOTAL OUT =          10.9500

                IN - OUT =           0.0000                  IN - OUT =           0.0000

     PERCENT DISCREPANCY =           0.00         PERCENT DISCREPANCY =           0.00



1
  VOLUMETRIC BUDGET FOR ENTIRE MODEL AT END OF TIME STEP   30, STRESS PERIOD  34
  ------------------------------------------------------------------------------

     CUMULATIVE VOLUMES      L**3       RATES FOR THIS TIME STEP      L**3/T
     ------------------                 ------------------------

           IN:                                      IN:
           ---                                      ---
             STORAGE     =  1739987584.0000               STORAGE     =          17.2605
       CONSTANT HEAD     =           0.0000         CONSTANT HEAD     =           0.0000
     HEAD DEP BOUNDS     =    24823344.0000       HEAD DEP BOUNDS     =           0.2870
      STREAM LEAKAGE     =  1065888000.0000        STREAM LEAKAGE     =          12.0012
        UZF RECHARGE     =   193243248.0000          UZF RECHARGE     =          29.6006
               GW ET     =           0.0000                 GW ET     =           0.0000
     SURFACE LEAKAGE     =           0.0000       SURFACE LEAKAGE     =           0.0000
           AG WELLS      =           0.0000             AG WELLS      =           0.0000

                TOTAL IN =  3023942144.0000                  TOTAL IN =          59.1493

          OUT:                                     OUT:
          ----                                     ----
             STORAGE     =   674939008.0000               STORAGE     =          37.9879
       CONSTANT HEAD     =           0.0000         CONSTANT HEAD     =           0.0000
     HEAD DEP BOUNDS     =    25432680.0000       HEAD DEP BOUNDS     =           0.2891
      STREAM LEAKAGE     =   895285760.0000        STREAM LEAKAGE     =           9.9223
        UZF RECHARGE     =           0.0000          UZF RECHARGE     =           0.0000
               GW ET     =    17288296.0000                 GW ET     =           0.0000
     SURFACE LEAKAGE     =           0.0000       SURFACE LEAKAGE     =           0.0000
           AG WELLS      =  1410983296.0000             AG WELLS      =          10.9500

               TOTAL OUT =  3023929088.0000                 TOTAL OUT =          59.1493

                IN - OUT =       13056.0000                  IN - OUT =       7.6294E-06

     PERCENT DISCREPANCY =           0.00         PERCENT DISCREPANCY =           0.00






         TIME SUMMARY AT END OF TIME STEP   30 IN STRESS PERIOD   34
                    SECONDS     MINUTES      HOURS       DAYS        YEARS
                    -----------------------------------------------------------
   TIME STEP LENGTH  87667.      1461.1      24.352      1.0147     2.77799E-03
 STRESS PERIOD TIME 2.63000E+06  43833.      730.56      30.440     8.33397E-02
         TOTAL TIME 8.68762E+07 1.44794E+06  24132.      1005.5      2.7529    
1
1
                            STRESS PERIOD NO.   35, LENGTH =   2630000.    
                            -----------------------------------------------

                              NUMBER OF TIME STEPS =    30

                               MULTIPLIER FOR DELT =     1.000

                            INITIAL TIME STEP SIZE =   87666.66    

 REUSING NON-PARAMETER GHB CELLS FROM LAST STRESS PERIOD

      2 GHB CELLS

 REUSING STREAM SEGMENT DATA FROM LAST STRESS PERIOD



            AREAL INFILTRATION RATE
 READING ON UNIT   19 WITH FORMAT: (10F4.0)            

            1           2           3           4           5           6           7           8           9          10
 ........................................................................................................................
   1   1.2000E-09   0.000       0.000       0.000       0.000       0.000       0.000       0.000       0.000       0.000    
   2   2.1000E-09  2.0000E-09  8.0000E-10  8.5000E-09   0.000       0.000       0.000       0.000       0.000       0.000    
   3   5.0000E-10  1.1000E-09  8.8000E-09  5.5000E-09   0.000       0.000       0.000       0.000       0.000       0.000    
   4   8.5000E-09  1.1000E-09  1.1000E-09  1.1000E-09  2.0000E-09   0.000       0.000       0.000       0.000       0.000    
   5   8.5000E-09  1.1000E-09  1.1000E-09  1.1000E-09  1.1000E-09   0.000       0.000       0.000       0.000       0.000    
   6   8.5000E-09  5.2000E-09  2.1000E-09  1.1000E-09  1.5000E-09   0.000       0.000       0.000       0.000       0.000    
   7   8.5000E-09  5.2000E-09  2.1000E-09  1.2000E-09  2.0000E-09   0.000       0.000       0.000       0.000       0.000    
   8   5.0000E-10  5.2000E-09  2.1000E-09  1.2000E-09  5.0000E-09   0.000       0.000       0.000       0.000       0.000    
   9   5.0000E-10  5.2000E-09  2.1000E-09  1.2000E-09  5.0000E-09   0.000       0.000       0.000       0.000       0.000    
  10   5.0000E-10  5.2000E-09  2.1000E-09  1.2000E-09  5.8000E-09   0.000       0.000       0.000       0.000       0.000    
  11   1.0000E-10  1.1000E-09  1.1000E-09  1.2000E-09  5.0000E-09   0.000       0.000       0.000       0.000       0.000    
  12   1.1000E-09  1.1000E-09  1.1000E-09  1.1000E-09  2.0000E-09   0.000       0.000       0.000       0.000       0.000    
  13   1.1000E-09  2.2000E-09  2.2000E-09  2.1000E-09  1.0000E-09   0.000       0.000       0.000       0.000       0.000    
  14   2.0000E-10  5.5000E-09  5.5000E-09  5.2000E-09  1.0000E-09   0.000       0.000       0.000       0.000       0.000    
  15    0.000      8.8000E-09  8.8000E-09   0.000       0.000       0.000       0.000       0.000       0.000       0.000    

                  ET RATE =  5.000000E-09

 USING ET EXTINCTION DEPTH FROM PREVIOUS STRESS PERIOD. CURRENT PERIOD IS:      35

 USING EXTINCTION WATER CONTENT FROM PREVIOUS STRESS PERIOD. CURRENT PERIOD IS:      35

 USING AIR ENTRY PRESSURE FROM PREVIOUS STRESS PERIOD. CURRENT PERIOD IS:      35

 USING ROOT PRESSURE HEAD FROM PREVIOUS STRESS PERIOD. CURRENT PERIOD IS:      35

 USING ROOT ACTIVITY FROM PREVIOUS STRESS PERIOD. CURRENT PERIOD IS:      35

 PROCESSING AG STRESS PERIOD DATA

 READING AG STRESS PERIOD DATA

 READING IRRIGATION WELL

 END PROCESSING AG STRESS PERIOD DATA OPTIONS
 
 SOLVING FOR HEAD 
                                                   Max.-Head-Change                         Max.-Flux-Residual
  Residual-Control   Outer-Iter.   Inner-Iter.     Column Row Layer    Maximum-Head-Change  Column Row Layer    Maximum-Flux-Residual          L2-NORM 
          0                 1           2             4    7     1       0.1696393933E+00       4    7    1         0.8915224710E+01      0.1813719103E+02
          0                 2           2             4    7     1      -0.1648163290E-01       4    7    1        -0.8910694002E+00      0.1793159678E+01
          0                 3           2             4    7     1       0.1110636461E-02       4    7    1         0.6232758500E-01      0.1163464840E+00
          0                 4           1             4    7     1      -0.4413834450E-04       4    7    1        -0.2546868855E-02      0.4756315915E-02

    ------------------------------------------------
       NWT REQUIRED            4 OUTER ITERATIONS 
       AND A TOTAL OF          7 INNER ITERATIONS.
    ------------------------------------------------

 NO OUTPUT CONTROL FOR STRESS PERIOD   35   TIME STEP    1
 
 SOLVING FOR HEAD 
                                                   Max.-Head-Change                         Max.-Flux-Residual
  Residual-Control   Outer-Iter.   Inner-Iter.     Column Row Layer    Maximum-Head-Change  Column Row Layer    Maximum-Flux-Residual          L2-NORM 
          0                 1           2             4    7     1       0.1676510341E+00       4    7    1         0.8813944433E+01      0.1704642593E+02
          0                 2           2             4    8     1       0.3234694719E-01       4    8    1         0.1760831726E+01      0.2062432182E+01
          0                 3           2             4    8     1       0.8661308655E-02       4    8    1         0.4708147626E+00      0.4905484148E+00
          0                 4           2             4    8     1       0.2319237867E-02       4    8    1         0.1261047341E+00      0.1298533657E+00
          0                 5           2             4    8     1       0.6210367223E-03       4    8    1         0.3376582901E-01      0.3481013202E-01
          0                 6           2             4    8     1       0.1663023615E-03       4    8    1         0.9041784600E-02      0.9340855691E-02
          0                 7           1             4    8     1       0.4453358222E-04       4    8    1         0.2421235002E-02      0.2507300616E-02

    ------------------------------------------------
       NWT REQUIRED            7 OUTER ITERATIONS 
       AND A TOTAL OF         13 INNER ITERATIONS.
    ------------------------------------------------

 NO OUTPUT CONTROL FOR STRESS PERIOD   35   TIME STEP    2
 
 SOLVING FOR HEAD 
                                                   Max.-Head-Change                         Max.-Flux-Residual
  Residual-Control   Outer-Iter.   Inner-Iter.     Column Row Layer    Maximum-Head-Change  Column Row Layer    Maximum-Flux-Residual          L2-NORM 
          0                 1           2             4    7     1       0.1660393976E+00       4    7    1         0.8734542806E+01      0.1670234140E+02
          0                 2           2             4    7     1       0.4542894270E-01       4    7    1         0.2446371782E+01      0.3629498812E+01
          0                 3           2             4    7     1       0.1027689339E-01       4    7    1         0.5508796683E+00      0.8746662840E+00
          0                 4           2             5    7     1       0.2608830133E-02       5    7    1         0.1431055147E+00      0.1914857353E+00
          0                 5           2             5    7     1       0.6958436535E-03       5    7    1         0.3787238139E-01      0.4901012485E-01
          0                 6           2             5    7     1       0.1856310958E-03       5    7    1         0.1012042472E-01      0.1309598482E-01
          0                 7           1             5    7     1       0.4952900832E-04       5    7    1         0.2699208730E-02      0.3506083835E-02

    ------------------------------------------------
       NWT REQUIRED            7 OUTER ITERATIONS 
       AND A TOTAL OF         13 INNER ITERATIONS.
    ------------------------------------------------

 NO OUTPUT CONTROL FOR STRESS PERIOD   35   TIME STEP    3
 
 SOLVING FOR HEAD 
                                                   Max.-Head-Change                         Max.-Flux-Residual
  Residual-Control   Outer-Iter.   Inner-Iter.     Column Row Layer    Maximum-Head-Change  Column Row Layer    Maximum-Flux-Residual          L2-NORM 
          0                 1           2             4    7     1       0.1617783333E+00       4    7    1         0.8508937024E+01      0.1632244835E+02
          0                 2           2             4    6     1       0.1903907335E-01       4    6    1         0.1036055392E+01      0.1809577258E+01
          0                 3           2             4    6     1       0.5077109205E-02       4    6    1         0.2774380552E+00      0.3041996081E+00
          0                 4           2             4    6     1       0.1353905350E-02       4    6    1         0.7375206756E-01      0.7413449960E-01
          0                 5           2             4    6     1       0.3610441831E-03       4    6    1         0.1968844502E-01      0.1969005389E-01
          0                 6           1             4    6     1       0.9627917440E-04       4    6    1         0.5248992392E-02      0.5249186307E-02

    ------------------------------------------------
       NWT REQUIRED            6 OUTER ITERATIONS 
       AND A TOTAL OF         11 INNER ITERATIONS.
    ------------------------------------------------

 NO OUTPUT CONTROL FOR STRESS PERIOD   35   TIME STEP    4
 
 SOLVING FOR HEAD 
                                                   Max.-Head-Change                         Max.-Flux-Residual
  Residual-Control   Outer-Iter.   Inner-Iter.     Column Row Layer    Maximum-Head-Change  Column Row Layer    Maximum-Flux-Residual          L2-NORM 
          0                 1           2             4    7     1       0.1605007459E+00       4    7    1         0.8446722071E+01      0.1601395751E+02
          0                 2           2             4    6     1       0.2698245909E-01       4    6    1         0.1493542911E+01      0.2058755900E+01
          0                 3           2             4    6     1      -0.2623328465E-02       4    6    1        -0.1486433877E+00      0.1790417320E+00
          0                 4           2             4    6     1       0.1785101542E-03       4    6    1         0.1035441319E-01      0.1115328695E-01
          0                 5           1             4    6     1      -0.7094542771E-05       4    6    1        -0.4212778852E-03      0.4251568534E-03

    ------------------------------------------------
       NWT REQUIRED            5 OUTER ITERATIONS 
       AND A TOTAL OF          9 INNER ITERATIONS.
    ------------------------------------------------

 NO OUTPUT CONTROL FOR STRESS PERIOD   35   TIME STEP    5
 
 SOLVING FOR HEAD 
                                                   Max.-Head-Change                         Max.-Flux-Residual
  Residual-Control   Outer-Iter.   Inner-Iter.     Column Row Layer    Maximum-Head-Change  Column Row Layer    Maximum-Flux-Residual          L2-NORM 
          0                 1           2             4    7     1       0.1589446136E+00       4    7    1         0.8369091943E+01      0.1573567696E+02
          0                 2           2             4    7     1      -0.1545308374E-01       4    7    1        -0.8364881216E+00      0.1572779743E+01
          0                 3           2             4    7     1       0.1051501401E-02       4    7    1         0.5850982817E-01      0.1100150116E+00
          0                 4           1             4    7     1      -0.4178784012E-04       4    7    1        -0.2390058538E-02      0.4494223118E-02

    ------------------------------------------------
       NWT REQUIRED            4 OUTER ITERATIONS 
       AND A TOTAL OF          7 INNER ITERATIONS.
    ------------------------------------------------

 NO OUTPUT CONTROL FOR STRESS PERIOD   35   TIME STEP    6
 
 SOLVING FOR HEAD 
                                                   Max.-Head-Change                         Max.-Flux-Residual
  Residual-Control   Outer-Iter.   Inner-Iter.     Column Row Layer    Maximum-Head-Change  Column Row Layer    Maximum-Flux-Residual          L2-NORM 
          0                 1           2             4    7     1       0.1568129292E+00       4    7    1         0.8258315211E+01      0.1548698617E+02
          0                 2           2             4    7     1       0.2508085382E-01       4    7    1         0.1386124626E+01      0.1805059344E+01
          0                 3           2             4    7     1       0.6699889929E-02       4    7    1         0.3634719279E+00      0.3729312098E+00
          0                 4           1             4    7     1       0.1790131216E-02       4    7    1         0.9752518820E-01      0.9763382549E-01
          0                 5           1             4    7     1       0.4784111292E-03       4    7    1         0.2604143785E-01      0.2604816580E-01
          0                 6           1             4    7     1       0.1278866204E-03       4    7    1         0.6960161968E-02      0.6960414553E-02
          0                 7           1             4    7     1       0.3419506192E-04       4    7    1         0.1860620906E-02      0.1860820161E-02

    ------------------------------------------------
       NWT REQUIRED            7 OUTER ITERATIONS 
       AND A TOTAL OF         10 INNER ITERATIONS.
    ------------------------------------------------

 NO OUTPUT CONTROL FOR STRESS PERIOD   35   TIME STEP    7
 
 SOLVING FOR HEAD 
                                                   Max.-Head-Change                         Max.-Flux-Residual
  Residual-Control   Outer-Iter.   Inner-Iter.     Column Row Layer    Maximum-Head-Change  Column Row Layer    Maximum-Flux-Residual          L2-NORM 
          0                 1           2             4    7     1       0.1524071844E+00       4    7    1         0.8022108850E+01      0.1522301206E+02
          0                 2           2             4    8     1       0.3119909957E-01       4    8    1         0.1686080468E+01      0.2131501683E+01
          0                 3           2             4    8     1       0.8377101661E-02       4    8    1         0.4552919330E+00      0.4705078190E+00
          0                 4           2             4    8     1       0.2249283731E-02       4    8    1         0.1219673934E+00      0.1227212470E+00
          0                 5           2             4    8     1       0.6039413819E-03       4    8    1         0.3276782728E-01      0.3291679220E-01
          0                 6           2             4    8     1       0.1621604351E-03       4    8    1         0.8797507140E-02      0.8835886377E-02
          0                 7           1             4    8     1       0.4354061999E-04       4    8    1         0.2362194311E-02      0.2372120214E-02

    ------------------------------------------------
       NWT REQUIRED            7 OUTER ITERATIONS 
       AND A TOTAL OF         13 INNER ITERATIONS.
    ------------------------------------------------

 NO OUTPUT CONTROL FOR STRESS PERIOD   35   TIME STEP    8
 
 SOLVING FOR HEAD 
                                                   Max.-Head-Change                         Max.-Flux-Residual
  Residual-Control   Outer-Iter.   Inner-Iter.     Column Row Layer    Maximum-Head-Change  Column Row Layer    Maximum-Flux-Residual          L2-NORM 
          0                 1           2             4    7     1       0.1490874852E+00       4    7    1         0.7892788199E+01      0.1393230420E+02
          0                 2           2             5    7     1       0.3005372283E-01       5    7    1         0.1673102448E+01      0.1947240362E+01
          0                 3           2             5    7     1       0.7902486217E-02       5    7    1         0.4340655328E+00      0.4544867954E+00
          0                 4           2             5    7     1       0.2079071351E-02       5    7    1         0.1145076392E+00      0.1194735529E+00
          0                 5           2             5    7     1       0.5472826299E-03       5    7    1         0.3011596956E-01      0.3162858351E-01
          0                 6           2             5    7     1       0.1441419002E-03       5    7    1         0.7929332940E-02      0.8388909021E-02
          0                 7           1             5    7     1       0.3798433664E-04       5    7    1         0.2088695087E-02      0.2227418637E-02

    ------------------------------------------------
       NWT REQUIRED            7 OUTER ITERATIONS 
       AND A TOTAL OF         13 INNER ITERATIONS.
    ------------------------------------------------

 NO OUTPUT CONTROL FOR STRESS PERIOD   35   TIME STEP    9
 
 SOLVING FOR HEAD 
                                                   Max.-Head-Change                         Max.-Flux-Residual
  Residual-Control   Outer-Iter.   Inner-Iter.     Column Row Layer    Maximum-Head-Change  Column Row Layer    Maximum-Flux-Residual          L2-NORM 
          0                 1           2             4    7     1       0.1460916553E+00       4    7    1         0.7808160224E+01      0.1240500282E+02
          0                 2           2             4    6     1       0.3452799774E-01       4    6    1         0.1873013996E+01      0.2533576542E+01
          0                 3           2             4    6     1       0.9359153002E-02       4    6    1         0.5034143938E+00      0.6398482954E+00
          0                 4           2             5    6     1       0.1932872109E-02       5    6    1         0.1052503459E+00      0.1377050140E+00
          0                 5           2             5    6     1       0.5071895407E-03       5    6    1         0.2811766392E-01      0.2948528269E-01
          0                 6           2             5    6     1       0.1330870917E-03       5    6    1         0.7331869601E-02      0.7359296832E-02
          0                 7           1             5    6     1       0.3492224414E-04       5    6    1         0.1926791571E-02      0.1926910595E-02

    ------------------------------------------------
       NWT REQUIRED            7 OUTER ITERATIONS 
       AND A TOTAL OF         13 INNER ITERATIONS.
    ------------------------------------------------

 NO OUTPUT CONTROL FOR STRESS PERIOD   35   TIME STEP   10
 
 SOLVING FOR HEAD 
                                                   Max.-Head-Change                         Max.-Flux-Residual
  Residual-Control   Outer-Iter.   Inner-Iter.     Column Row Layer    Maximum-Head-Change  Column Row Layer    Maximum-Flux-Residual          L2-NORM 
          0                 1           2             4    7     1       0.1427834636E+00       4    7    1         0.7636938797E+01      0.1200971741E+02
          0                 2           2             4    7     1      -0.1399810297E-01       4    7    1        -0.7713726712E+00      0.1159135726E+01
          0                 3           2             4    7     1       0.9525069998E-03       4    7    1         0.5395570398E-01      0.8551189325E-01
          0                 4           1             5    6     1       0.4412868270E-04       5    6    1         0.2618094918E-02      0.4093692065E-02

    ------------------------------------------------
       NWT REQUIRED            4 OUTER ITERATIONS 
       AND A TOTAL OF          7 INNER ITERATIONS.
    ------------------------------------------------

 NO OUTPUT CONTROL FOR STRESS PERIOD   35   TIME STEP   11
 
 SOLVING FOR HEAD 
                                                   Max.-Head-Change                         Max.-Flux-Residual
  Residual-Control   Outer-Iter.   Inner-Iter.     Column Row Layer    Maximum-Head-Change  Column Row Layer    Maximum-Flux-Residual          L2-NORM 
          0                 1           2             4    7     1       0.1384818899E+00       4    7    1         0.7412443370E+01      0.1070801825E+02
          0                 2           2             4    7     1       0.3099646322E-01       4    7    1         0.1703655953E+01      0.1870583918E+01
          0                 3           2             4    7     1       0.8267858186E-02       4    7    1         0.4497671666E+00      0.4531091418E+00
          0                 4           1             4    7     1       0.2205336132E-02       4    7    1         0.1202574042E+00      0.1202714381E+00
          0                 5           1             4    7     1       0.5882428429E-03       4    7    1         0.3206522911E-01      0.3206601049E-01
          0                 6           1             4    7     1       0.1569056574E-03       4    7    1         0.8553438870E-02      0.8553530132E-02
          0                 7           1             4    7     1       0.4185241885E-04       4    7    1         0.2281492217E-02      0.2281520151E-02

    ------------------------------------------------
       NWT REQUIRED            7 OUTER ITERATIONS 
       AND A TOTAL OF         10 INNER ITERATIONS.
    ------------------------------------------------

 NO OUTPUT CONTROL FOR STRESS PERIOD   35   TIME STEP   12
 
 SOLVING FOR HEAD 
                                                   Max.-Head-Change                         Max.-Flux-Residual
  Residual-Control   Outer-Iter.   Inner-Iter.     Column Row Layer    Maximum-Head-Change  Column Row Layer    Maximum-Flux-Residual          L2-NORM 
          0                 1           2             4    7     1       0.1316942411E+00       4    7    1         0.7040578796E+01      0.1038904939E+02
          0                 2           2             4    6     1      -0.1107156603E-01       4    6    1        -0.6259764559E+00      0.9533815684E+00
          0                 3           2             4    7     1      -0.9930521331E-03       4    7    1        -0.5664536444E-01      0.7806777393E-01
          0                 4           1             4    7     1       0.6757484237E-04       4    7    1         0.3934747104E-02      0.4519936797E-02

    ------------------------------------------------
       NWT REQUIRED            4 OUTER ITERATIONS 
       AND A TOTAL OF          7 INNER ITERATIONS.
    ------------------------------------------------

 NO OUTPUT CONTROL FOR STRESS PERIOD   35   TIME STEP   13
 
 SOLVING FOR HEAD 
                                                   Max.-Head-Change                         Max.-Flux-Residual
  Residual-Control   Outer-Iter.   Inner-Iter.     Column Row Layer    Maximum-Head-Change  Column Row Layer    Maximum-Flux-Residual          L2-NORM 
          0                 1           2             4    6     1       0.1130436851E+00       4    6    1         0.6103923018E+01      0.7845541500E+01
          0                 2           2             4    6     1      -0.1099066513E-01       4    6    1        -0.6100968933E+00      0.7842195180E+00
          0                 3           2             4    6     1       0.7478720377E-03       4    6    1         0.4267520849E-01      0.5486121547E-01
          0                 4           1             4    6     1      -0.2972230228E-04       4    6    1        -0.1743287203E-02      0.2241512398E-02

    ------------------------------------------------
       NWT REQUIRED            4 OUTER ITERATIONS 
       AND A TOTAL OF          7 INNER ITERATIONS.
    ------------------------------------------------

 NO OUTPUT CONTROL FOR STRESS PERIOD   35   TIME STEP   14
 
 SOLVING FOR HEAD 
                                                   Max.-Head-Change                         Max.-Flux-Residual
  Residual-Control   Outer-Iter.   Inner-Iter.     Column Row Layer    Maximum-Head-Change  Column Row Layer    Maximum-Flux-Residual          L2-NORM 
          0                 1           2             4    6     1       0.1088664187E+00       4    6    1         0.5873495634E+01      0.7654685428E+01
          0                 2           2             4    6     1       0.5219628616E-02       4    6    1         0.2909890125E+00      0.5705024151E+00
          0                 3           2             4    6     1       0.1391747451E-02       4    6    1         0.7544882706E-01      0.8293820703E-01
          0                 4           2             4    6     1       0.3710931859E-03       4    6    1         0.2025269047E-01      0.2029796641E-01
          0                 5           1             4    6     1       0.9894758261E-04       4    6    1         0.5394754910E-02      0.5395006721E-02

    ------------------------------------------------
       NWT REQUIRED            5 OUTER ITERATIONS 
       AND A TOTAL OF          9 INNER ITERATIONS.
    ------------------------------------------------

 NO OUTPUT CONTROL FOR STRESS PERIOD   35   TIME STEP   15
 
 SOLVING FOR HEAD 
                                                   Max.-Head-Change                         Max.-Flux-Residual
  Residual-Control   Outer-Iter.   Inner-Iter.     Column Row Layer    Maximum-Head-Change  Column Row Layer    Maximum-Flux-Residual          L2-NORM 
          0                 1           2             4    6     1       0.1040591468E+00       4    6    1         0.5608362450E+01      0.7449924008E+01
          0                 2           2             4    6     1       0.2774555905E-01       4    6    1         0.1519741017E+01      0.1596848237E+01
          0                 3           2             4    6     1       0.7397897169E-02       4    6    1         0.4029485948E+00      0.4044578514E+00
          0                 4           2             4    6     1       0.1972532726E-02       4    6    1         0.1075761830E+00      0.1075830550E+00
          0                 5           2             4    6     1       0.5259449459E-03       4    6    1         0.2867794196E-01      0.2867845194E-01
          0                 6           2             4    6     1       0.1402350016E-03       4    6    1         0.7646753192E-02      0.7646840543E-02
          0                 7           1             4    6     1       0.3739147305E-04       4    6    1         0.2038878085E-02      0.2038903121E-02

    ------------------------------------------------
       NWT REQUIRED            7 OUTER ITERATIONS 
       AND A TOTAL OF         13 INNER ITERATIONS.
    ------------------------------------------------

 NO OUTPUT CONTROL FOR STRESS PERIOD   35   TIME STEP   16
 
 SOLVING FOR HEAD 
                                                   Max.-Head-Change                         Max.-Flux-Residual
  Residual-Control   Outer-Iter.   Inner-Iter.     Column Row Layer    Maximum-Head-Change  Column Row Layer    Maximum-Flux-Residual          L2-NORM 
          0                 1           2             4    6     1       0.9797366097E-01       4    6    1         0.5272698186E+01      0.7214740874E+01
          0                 2           2             4    7     1      -0.4225798298E-02       4    7    1        -0.2340692712E+00      0.5244570376E+00
          0                 3           2             4    6     1      -0.3099054935E-03       4    6    1        -0.1786979206E-01      0.3886786481E-01
          0                 4           1             4    6     1       0.2108839356E-04       4    6    1         0.1235935095E-02      0.1880803760E-02

    ------------------------------------------------
       NWT REQUIRED            4 OUTER ITERATIONS 
       AND A TOTAL OF          7 INNER ITERATIONS.
    ------------------------------------------------

 NO OUTPUT CONTROL FOR STRESS PERIOD   35   TIME STEP   17
 
 SOLVING FOR HEAD 
                                                   Max.-Head-Change                         Max.-Flux-Residual
  Residual-Control   Outer-Iter.   Inner-Iter.     Column Row Layer    Maximum-Head-Change  Column Row Layer    Maximum-Flux-Residual          L2-NORM 
          0                 1           2             4    7     1       0.4444195492E-01       4    7    1         0.2362928932E+01      0.4940954755E+01
          0                 2           2             4    7     1      -0.4320723252E-02       4    7    1        -0.2361696203E+00      0.4939318970E+00
          0                 3           2             4    7     1       0.2940056104E-03       4    7    1         0.1651952817E-01      0.3455926461E-01
          0                 4           1             4    7     1      -0.1168425353E-04       4    7    1        -0.6748114840E-03      0.1412393956E-02

    ------------------------------------------------
       NWT REQUIRED            4 OUTER ITERATIONS 
       AND A TOTAL OF          7 INNER ITERATIONS.
    ------------------------------------------------

 NO OUTPUT CONTROL FOR STRESS PERIOD   35   TIME STEP   18
 
 SOLVING FOR HEAD 
                                                   Max.-Head-Change                         Max.-Flux-Residual
  Residual-Control   Outer-Iter.   Inner-Iter.     Column Row Layer    Maximum-Head-Change  Column Row Layer    Maximum-Flux-Residual          L2-NORM 
          0                 1           2             4    7     1       0.4346156126E-01       4    7    1         0.2309096452E+01      0.4864250058E+01
          0                 2           2             4    7     1      -0.4225404951E-02       4    7    1        -0.2307890033E+00      0.4862628551E+00
          0                 3           2             4    7     1       0.2875195016E-03       4    7    1         0.1614315817E-01      0.3402257238E-01
          0                 4           1             4    7     1      -0.1142647581E-04       4    7    1        -0.6594364218E-03      0.1390451448E-02

    ------------------------------------------------
       NWT REQUIRED            4 OUTER ITERATIONS 
       AND A TOTAL OF          7 INNER ITERATIONS.
    ------------------------------------------------

 NO OUTPUT CONTROL FOR STRESS PERIOD   35   TIME STEP   19
 
 SOLVING FOR HEAD 
                                                   Max.-Head-Change                         Max.-Flux-Residual
  Residual-Control   Outer-Iter.   Inner-Iter.     Column Row Layer    Maximum-Head-Change  Column Row Layer    Maximum-Flux-Residual          L2-NORM 
          0                 1           2             4    7     1       0.4253274431E-01       4    7    1         0.2258155264E+01      0.4791286391E+01
          0                 2           2             4    7     1      -0.4135101234E-02       4    7    1        -0.2256973779E+00      0.4789678579E+00
          0                 3           2             4    7     1       0.2813746242E-03       4    7    1         0.1578700317E-01      0.3351205822E-01
          0                 4           1             4    7     1      -0.1118226001E-04       4    7    1        -0.6448871784E-03      0.1369580240E-02

    ------------------------------------------------
       NWT REQUIRED            4 OUTER ITERATIONS 
       AND A TOTAL OF          7 INNER ITERATIONS.
    ------------------------------------------------

 NO OUTPUT CONTROL FOR STRESS PERIOD   35   TIME STEP   20
 
 SOLVING FOR HEAD 
                                                   Max.-Head-Change                         Max.-Flux-Residual
  Residual-Control   Outer-Iter.   Inner-Iter.     Column Row Layer    Maximum-Head-Change  Column Row Layer    Maximum-Flux-Residual          L2-NORM 
          0                 1           2             4    7     1       0.4165192318E-01       4    7    1         0.2209902805E+01      0.4721725003E+01
          0                 2           2             4    7     1      -0.4049463949E-02       4    7    1        -0.2208744975E+00      0.4720130563E+00
          0                 3           2             4    7     1       0.2755472871E-03       4    7    1         0.1544964695E-01      0.3302534864E-01
          0                 4           1             4    7     1      -0.1095066415E-04       4    7    1        -0.6311058921E-03      0.1349681716E-02

    ------------------------------------------------
       NWT REQUIRED            4 OUTER ITERATIONS 
       AND A TOTAL OF          7 INNER ITERATIONS.
    ------------------------------------------------

 NO OUTPUT CONTROL FOR STRESS PERIOD   35   TIME STEP   21
 
 SOLVING FOR HEAD 
                                                   Max.-Head-Change                         Max.-Flux-Residual
  Residual-Control   Outer-Iter.   Inner-Iter.     Column Row Layer    Maximum-Head-Change  Column Row Layer    Maximum-Flux-Residual          L2-NORM 
          0                 1           2             4    7     1       0.4081540850E-01       4    7    1         0.2164131574E+01      0.4655259743E+01
          0                 2           2             4    7     1      -0.3968134397E-02       4    7    1        -0.2162996223E+00      0.4653678291E+00
          0                 3           2             4    7     1       0.2700130822E-03       4    7    1         0.1512963875E-01      0.3256031598E-01
          0                 4           1             4    7     1      -0.1073071886E-04       4    7    1        -0.6180333119E-03      0.1330672464E-02

    ------------------------------------------------
       NWT REQUIRED            4 OUTER ITERATIONS 
       AND A TOTAL OF          7 INNER ITERATIONS.
    ------------------------------------------------

 NO OUTPUT CONTROL FOR STRESS PERIOD   35   TIME STEP   22
 
 SOLVING FOR HEAD 
                                                   Max.-Head-Change                         Max.-Flux-Residual
  Residual-Control   Outer-Iter.   Inner-Iter.     Column Row Layer    Maximum-Head-Change  Column Row Layer    Maximum-Flux-Residual          L2-NORM 
          0                 1           2             4    7     1       0.4002020676E-01       4    7    1         0.2120672120E+01      0.4591627358E+01
          0                 2           2             4    7     1      -0.3890821531E-02       4    7    1        -0.2119558152E+00      0.4590058759E+00
          0                 3           2             4    7     1       0.2647522040E-03       4    7    1         0.1482579379E-01      0.3211511482E-01
          0                 4           1             4    7     1      -0.1052163700E-04       4    7    1        -0.6056210532E-03      0.1312476004E-02

    ------------------------------------------------
       NWT REQUIRED            4 OUTER ITERATIONS 
       AND A TOTAL OF          7 INNER ITERATIONS.
    ------------------------------------------------

 NO OUTPUT CONTROL FOR STRESS PERIOD   35   TIME STEP   23
 
 SOLVING FOR HEAD 
                                                   Max.-Head-Change                         Max.-Flux-Residual
  Residual-Control   Outer-Iter.   Inner-Iter.     Column Row Layer    Maximum-Head-Change  Column Row Layer    Maximum-Flux-Residual          L2-NORM 
          0                 1           2             4    7     1       0.3926329517E-01       4    7    1         0.2079354678E+01      0.4530568318E+01
          0                 2           2             4    7     1      -0.3817231458E-02       4    7    1        -0.2078261078E+00      0.4529012272E+00
          0                 3           2             4    7     1       0.2597446524E-03       4    7    1         0.1453692512E-01      0.3168790513E-01
          0                 4           1             4    7     1      -0.1032262248E-04       4    7    1        -0.5938205563E-03      0.1295002772E-02

    ------------------------------------------------
       NWT REQUIRED            4 OUTER ITERATIONS 
       AND A TOTAL OF          7 INNER ITERATIONS.
    ------------------------------------------------

 NO OUTPUT CONTROL FOR STRESS PERIOD   35   TIME STEP   24
 
 SOLVING FOR HEAD 
                                                   Max.-Head-Change                         Max.-Flux-Residual
  Residual-Control   Outer-Iter.   Inner-Iter.     Column Row Layer    Maximum-Head-Change  Column Row Layer    Maximum-Flux-Residual          L2-NORM 
          0                 1           2             4    7     1       0.3854202911E-01       4    7    1         0.2040029799E+01      0.4471887325E+01
          0                 2           2             4    7     1      -0.3747107056E-02       4    7    1        -0.2038955624E+00      0.4470343580E+00
          0                 3           2             4    7     1       0.2549729323E-03       4    7    1         0.1426198785E-01      0.3127734460E-01
          0                 4           1             4    7     1      -0.1013298130E-04       4    7    1        -0.5825892147E-03      0.1278217495E-02

    ------------------------------------------------
       NWT REQUIRED            4 OUTER ITERATIONS 
       AND A TOTAL OF          7 INNER ITERATIONS.
    ------------------------------------------------

 NO OUTPUT CONTROL FOR STRESS PERIOD   35   TIME STEP   25
 
 SOLVING FOR HEAD 
                                                   Max.-Head-Change                         Max.-Flux-Residual
  Residual-Control   Outer-Iter.   Inner-Iter.     Column Row Layer    Maximum-Head-Change  Column Row Layer    Maximum-Flux-Residual          L2-NORM 
          0                 1           2             4    7     1       0.3785384581E-01       4    7    1         0.2002553085E+01      0.4415378938E+01
          0                 2           2             4    7     1      -0.3680199155E-02       4    7    1        -0.2001497459E+00      0.4413847483E+00
          0                 3           2             4    7     1       0.2504200875E-03       4    7    1         0.1399997238E-01      0.3088200282E-01
          0                 4           1             4    7     1      -0.9952039400E-05       4    7    1        -0.5718857426E-03      0.1262059774E-02

    ------------------------------------------------
       NWT REQUIRED            4 OUTER ITERATIONS 
       AND A TOTAL OF          7 INNER ITERATIONS.
    ------------------------------------------------

 NO OUTPUT CONTROL FOR STRESS PERIOD   35   TIME STEP   26
 
 SOLVING FOR HEAD 
                                                   Max.-Head-Change                         Max.-Flux-Residual
  Residual-Control   Outer-Iter.   Inner-Iter.     Column Row Layer    Maximum-Head-Change  Column Row Layer    Maximum-Flux-Residual          L2-NORM 
          0                 1           2             4    7     1       0.3719651437E-01       4    7    1         0.1966798941E+01      0.4360869750E+01
          0                 2           2             4    7     1      -0.3616290855E-02       4    7    1        -0.1965761048E+00      0.4359350421E+00
          0                 3           2             4    7     1       0.2460713579E-03       4    7    1         0.1375000057E-01      0.3050064429E-01
          0                 4           1             4    7     1      -0.9779209270E-05       4    7    1        -0.5616742646E-03      0.1246476620E-02

    ------------------------------------------------
       NWT REQUIRED            4 OUTER ITERATIONS 
       AND A TOTAL OF          7 INNER ITERATIONS.
    ------------------------------------------------

 NO OUTPUT CONTROL FOR STRESS PERIOD   35   TIME STEP   27
 
 SOLVING FOR HEAD 
                                                   Max.-Head-Change                         Max.-Flux-Residual
  Residual-Control   Outer-Iter.   Inner-Iter.     Column Row Layer    Maximum-Head-Change  Column Row Layer    Maximum-Flux-Residual          L2-NORM 
          0                 1           2             4    7     1       0.3656785186E-01       4    7    1         0.1932644416E+01      0.4308211545E+01
          0                 2           2             4    7     1      -0.3555169917E-02       4    7    1        -0.1931623500E+00      0.4306704187E+00
          0                 3           2             4    7     1       0.2419123019E-03       4    7    1         0.1351121279E-01      0.3013223472E-01
          0                 4           1             4    7     1      -0.9613917927E-05       4    7    1        -0.5519197023E-03      0.1231410436E-02

    ------------------------------------------------
       NWT REQUIRED            4 OUTER ITERATIONS 
       AND A TOTAL OF          7 INNER ITERATIONS.
    ------------------------------------------------

 NO OUTPUT CONTROL FOR STRESS PERIOD   35   TIME STEP   28
 
 SOLVING FOR HEAD 
                                                   Max.-Head-Change                         Max.-Flux-Residual
  Residual-Control   Outer-Iter.   Inner-Iter.     Column Row Layer    Maximum-Head-Change  Column Row Layer    Maximum-Flux-Residual          L2-NORM 
          0                 1           2             4    7     1       0.3596597549E-01       4    7    1         0.1899983613E+01      0.4257256267E+01
          0                 2           2             4    7     1      -0.3496653287E-02       4    7    1        -0.1898978966E+00      0.4255760795E+00
          0                 3           2             4    7     1       0.2379304630E-03       4    7    1         0.1328286867E-01      0.2977575421E-01
          0                 4           1             4    7     1      -0.9455669399E-05       4    7    1        -0.5425917570E-03      0.1216840876E-02

    ------------------------------------------------
       NWT REQUIRED            4 OUTER ITERATIONS 
       AND A TOTAL OF          7 INNER ITERATIONS.
    ------------------------------------------------

 NO OUTPUT CONTROL FOR STRESS PERIOD   35   TIME STEP   29
 
 SOLVING FOR HEAD 
                                                   Max.-Head-Change                         Max.-Flux-Residual
  Residual-Control   Outer-Iter.   Inner-Iter.     Column Row Layer    Maximum-Head-Change  Column Row Layer    Maximum-Flux-Residual          L2-NORM 
          0                 1           2             4    7     1       0.3538889276E-01       4    7    1         0.1868704343E+01      0.4207884706E+01
          0                 2           2             4    7     1      -0.3440547240E-02       4    7    1        -0.1867715312E+00      0.4206401176E+00
          0                 3           2             4    7     1       0.2341126580E-03       4    7    1         0.1306418376E-01      0.2943036099E-01
          0                 4           1             4    7     1      -0.9303941007E-05       4    7    1        -0.5336584329E-03      0.1202721797E-02

    ------------------------------------------------
       NWT REQUIRED            4 OUTER ITERATIONS 
       AND A TOTAL OF          7 INNER ITERATIONS.
    ------------------------------------------------

 NO OUTPUT CONTROL FOR STRESS PERIOD   35   TIME STEP   30



 STREAM LISTING     PERIOD     35   STEP       30

 LAYER ROW COL. STREAM  RCH.  FLOW INTO     FLOW TO   FLOW OUT OF   OVRLND.     DIRECT     STREAM       STREAM     STREAM     STREAM   STREAMBED  STREAMBED
                SEG.NO.  NO.  STRM. RCH.    AQUIFER    STRM. RCH.    RUNOFF     PRECIP       ET          HEAD       DEPTH      WIDTH   CONDCTNC.   GRADIENT

   1    1    1     1     1    1.9000E+01  2.1427E-01   1.8786E+01  0.000E+00  0.000E+00  0.000E+00  1.09413E+03  1.082E+00  1.166E+01  5.249E-02  1.361E+00
   1    2    2     1     2    1.8786E+01  3.3054E-01   1.8455E+01  0.000E+00  0.000E+00  0.000E+00  1.08914E+03  1.077E+00  1.158E+01  8.107E-02  1.359E+00
   1    3    3     1     3    1.8455E+01  2.8064E-01   1.8175E+01  0.000E+00  0.000E+00  0.000E+00  1.08349E+03  1.072E+00  1.149E+01  6.892E-02  1.357E+00
   1    3    4     1     4    1.8175E+01  2.5740E-01   1.7917E+01  0.000E+00  0.000E+00  0.000E+00  1.07848E+03  1.068E+00  1.140E+01  6.328E-02  1.356E+00
   1    4    5     2     1    1.5917E+01  3.0542E-01   1.5612E+01  0.000E+00  0.000E+00  0.000E+00  1.07285E+03  9.157E-01  1.200E+01  7.800E-02  1.305E+00
   1    5    6     2     2    1.5612E+01  2.3438E-01   1.5377E+01  0.000E+00  0.000E+00  0.000E+00  1.06742E+03  9.063E-01  1.200E+01  6.000E-02  1.302E+00
   1    6    6     2     3    1.5377E+01  2.3388E-01   1.5143E+01  0.000E+00  0.000E+00  0.000E+00  1.06269E+03  8.980E-01  1.200E+01  6.000E-02  1.299E+00
   1    7    6     2     4    1.5143E+01  2.3338E-01   1.4910E+01  0.000E+00  0.000E+00  0.000E+00  1.05797E+03  8.897E-01  1.200E+01  6.000E-02  1.297E+00
   1    8    6     2     5    1.4910E+01  2.3289E-01   1.4677E+01  0.000E+00  0.000E+00  0.000E+00  1.05324E+03  8.814E-01  1.200E+01  6.000E-02  1.294E+00
   1    3    5     3     1    2.0000E+00  2.8252E-01   1.7175E+00  0.000E+00  0.000E+00  0.000E+00  1.07555E+03  1.909E+00  9.636E+00  7.227E-02  1.955E+00
   1    3    6     3     2    1.7175E+00  2.4905E-01   1.4684E+00  0.000E+00  0.000E+00  0.000E+00  1.07264E+03  1.727E+00  8.909E+00  6.682E-02  1.864E+00
   1    3    7     3     3    1.4684E+00  1.9718E-01   1.2712E+00  0.000E+00  0.000E+00  0.000E+00  1.06987E+03  1.555E+00  8.218E+00  5.547E-02  1.777E+00
   1    4    8     3     4    1.2712E+00  2.2567E-01   1.0456E+00  0.000E+00  0.000E+00  0.000E+00  1.06682E+03  1.364E+00  7.455E+00  6.709E-02  1.682E+00
   1    5    8     3     5    1.0456E+00  1.5790E-01   8.8768E-01  0.000E+00  0.000E+00  0.000E+00  1.06362E+03  1.164E+00  6.655E+00  4.991E-02  1.582E+00
   1    6    8     3     6    8.8768E-01  5.5980E-02   8.3170E-01  0.000E+00  0.000E+00  0.000E+00  1.06158E+03  1.036E+00  6.145E+00  1.844E-02  1.518E+00
   1    5   10     4     1    1.0000E+01  9.0919E-02   9.9091E+00  0.000E+00  0.000E+00  0.000E+00  1.07836E+03  6.368E-01  1.000E+01  2.500E-02  1.212E+00
   1    5    9     4     2    9.9091E+00  1.8158E-01   9.7275E+00  0.000E+00  0.000E+00  0.000E+00  1.07154E+03  6.315E-01  1.000E+01  5.000E-02  1.211E+00
   1    6    8     4     3    9.7275E+00  1.2689E-01   9.6006E+00  0.000E+00  0.000E+00  0.000E+00  1.06381E+03  6.256E-01  1.000E+01  3.500E-02  1.209E+00
   1    6    8     5     1    1.0432E+01  2.2686E-01   1.0205E+01  0.000E+00  0.000E+00  0.000E+00  1.05868E+03  6.790E-01  1.542E+01  6.166E-02  1.226E+00
   1    7    7     5     2    1.0205E+01  2.7894E-01   9.9265E+00  0.000E+00  0.000E+00  0.000E+00  1.05417E+03  6.732E-01  1.519E+01  7.594E-02  1.224E+00
   1    8    7     5     3    9.9265E+00  1.9221E-01   9.7343E+00  0.000E+00  0.000E+00  0.000E+00  1.04992E+03  6.676E-01  1.497E+01  5.241E-02  1.223E+00
   1    8    6     5     4    9.7343E+00  1.3577E-01   9.5985E+00  0.000E+00  0.000E+00  0.000E+00  1.04691E+03  6.637E-01  1.482E+01  3.706E-02  1.221E+00
   1    9    6     6     1    2.4276E+01  2.5176E-01   2.4024E+01  0.000E+00  0.000E+00  0.000E+00  1.04392E+03  1.196E+00  1.200E+01  6.000E-02  1.399E+00
   1   10    7     6     2    2.4024E+01  2.5131E-01   2.3773E+01  0.000E+00  0.000E+00  0.000E+00  1.03937E+03  1.188E+00  1.200E+01  6.000E-02  1.396E+00
   1   11    7     6     3    2.3773E+01  2.5086E-01   2.3522E+01  0.000E+00  0.000E+00  0.000E+00  1.03482E+03  1.181E+00  1.200E+01  6.000E-02  1.394E+00
   1   12    7     6     4    2.3522E+01  2.5041E-01   2.3271E+01  0.000E+00  0.000E+00  0.000E+00  1.03026E+03  1.173E+00  1.200E+01  6.000E-02  1.391E+00
   1   13    7     6     5    2.3271E+01  7.4711E-03   2.3264E+01  0.000E+00  0.000E+00  0.000E+00  1.02708E+03  1.170E+00  1.200E+01  2.400E-02  1.038E-01
   1   14    9     7     1    1.5000E+02  1.3558E+00   1.4864E+02  0.000E+00  0.000E+00  0.000E+00  1.03987E+03  2.288E+00  5.529E+01  5.593E-01  8.080E-01
   1   13    8     7     2    1.4864E+02  1.9235E+00   1.4672E+02  0.000E+00  0.000E+00  0.000E+00  1.03478E+03  2.279E+00  5.526E+01  6.148E-01  1.043E+00
   1   13    7     7     3    1.4672E+02  1.6313E+00   1.4509E+02  0.000E+00  0.000E+00  0.000E+00  1.02969E+03  2.269E+00  5.521E+01  5.584E-01  9.738E-01
   1   13    6     8     1    1.6835E+02  1.0719E+00   1.6728E+02  0.000E+00  0.000E+00  0.000E+00  1.02481E+03  2.938E+00  4.260E+01  4.341E-01  8.230E-01
   1   13    5     8     2    1.6728E+02  3.1843E-01   1.6696E+02  0.000E+00  0.000E+00  0.000E+00  1.01856E+03  2.933E+00  4.253E+01  4.334E-01  2.449E-01
   1   13    4     8     3    1.6696E+02 -1.9483E+00   1.6891E+02  0.000E+00  0.000E+00  0.000E+00  1.01231E+03  2.939E+00  4.261E+01  4.342E+00 -1.496E-01
   1   13    3     8     4    1.6891E+02 -3.4196E+00   1.7233E+02  0.000E+00  0.000E+00  0.000E+00  1.00608E+03  2.956E+00  4.287E+01  4.368E+00 -2.610E-01
   1   13    2     8     5    1.7233E+02 -2.5323E+00   1.7486E+02  0.000E+00  0.000E+00  0.000E+00  9.99850E+02  2.975E+00  4.314E+01  4.397E+00 -1.920E-01
   1   13    1     8     6    1.7486E+02 -1.9685E+00   1.7683E+02  0.000E+00  0.000E+00  0.000E+00  9.94865E+02  2.990E+00  4.335E+01  2.651E+00 -2.475E-01





UNSATURATED ZONE PACKAGE VOLUMETRIC BUDGET FOR  TIME STEP    30 STRESS PERIOD   35
  ------------------------------------------------------------------------------



     CUMULATIVE VOLUMES      L**3       RATES FOR THIS TIME STEP      L**3/T
     ------------------                 ------------------------

           IN:                                      IN:
           ---                                      ---
        INFILTRATION =  1805175701.4099          INFILTRATION =           4.4075

          OUT:                                     OUT:
          ----                                     ----
              UZF ET =  1497018682.2111                UZF ET =           3.7800
        UZF RECHARGE =   221683459.5557          UZF RECHARGE =           0.0164

            IN - OUT =    86473559.6431              IN - OUT =           0.6111

          STORAGE:                                 STORAGE:
          --------                                 --------
      STORAGE CHANGE =    86475064.0994        STORAGE CHANGE =           0.6111

 PERCENT DISCREPANCY IS DIFFERENCE BETWEEN IN-OUT MINUS CHANGE IN STORAGE
 DIVIDED BY THE AVERAGE OF IN AND OUT TIMES 100

 PERCENT DISCREPANCY =          -0.00     PERCENT DISCREPANCY =           0.00






1
  VOLUMETRIC BUDGET FOR AGRICULTURAL FIELDS AT TIME STEP   30, STRESS PERIOD  35
  ------------------------------------------------------------------------------

     CUMULATIVE VOLUMES      L**3       RATES FOR THIS TIME STEP      L**3/T
     ------------------                 ------------------------

           IN:                                      IN:
           ---                                      ---
               AG WELLS  =  1410983296.0000                 AG WELLS  =           0.0000
      DIVERSION SEGMENTS =           0.0000        DIVERSION SEGMENTS =           0.0000
           GW IRRIGATION =           0.0000             GW IRRIGATION =           0.0000
           SW IRRIGATION =           0.0000             SW IRRIGATION =           0.0000
        SYSTEM LOSSES GW =           0.0000          SYSTEM LOSSES GW =           0.0000
        SYSTEM LOSSES SW =           0.0000          SYSTEM LOSSES SW =           0.0000

                TOTAL IN =  1410983296.0000                  TOTAL IN =           0.0000

          OUT:                                     OUT:
          ----                                     ----
               AG WELLS  =           0.0000                 AG WELLS  =           0.0000
      DIVERSION SEGMENTS =           0.0000        DIVERSION SEGMENTS =           0.0000
           GW IRRIGATION =  1410983296.0000             GW IRRIGATION =           0.0000
           SW IRRIGATION =           0.0000             SW IRRIGATION =           0.0000
        SYSTEM LOSSES GW =           0.0000          SYSTEM LOSSES GW =           0.0000
        SYSTEM LOSSES SW =           0.0000          SYSTEM LOSSES SW =           0.0000

               TOTAL OUT =  1410983296.0000                 TOTAL OUT =           0.0000

                IN - OUT =           0.0000                  IN - OUT =           0.0000

     PERCENT DISCREPANCY =           0.00         PERCENT DISCREPANCY =           0.00



1
  VOLUMETRIC BUDGET FOR ENTIRE MODEL AT END OF TIME STEP   30, STRESS PERIOD  35
  ------------------------------------------------------------------------------

     CUMULATIVE VOLUMES      L**3       RATES FOR THIS TIME STEP      L**3/T
     ------------------                 ------------------------

           IN:                                      IN:
           ---                                      ---
             STORAGE     =  1776142976.0000               STORAGE     =          11.2805
       CONSTANT HEAD     =           0.0000         CONSTANT HEAD     =           0.0000
     HEAD DEP BOUNDS     =    25578300.0000       HEAD DEP BOUNDS     =           0.2871
      STREAM LEAKAGE     =  1097497856.0000        STREAM LEAKAGE     =          12.0370
        UZF RECHARGE     =   221683456.0000          UZF RECHARGE     =       1.6400E-02
               GW ET     =           0.0000                 GW ET     =           0.0000
     SURFACE LEAKAGE     =           0.0000       SURFACE LEAKAGE     =           0.0000
           AG WELLS      =           0.0000             AG WELLS      =           0.0000

                TOTAL IN =  3120902400.0000                  TOTAL IN =          23.6210

          OUT:                                     OUT:
          ----                                     ----
             STORAGE     =   745113792.0000               STORAGE     =          13.4632
       CONSTANT HEAD     =           0.0000         CONSTANT HEAD     =           0.0000
     HEAD DEP BOUNDS     =    26193000.0000       HEAD DEP BOUNDS     =           0.2891
      STREAM LEAKAGE     =   921310464.0000        STREAM LEAKAGE     =           9.8687
        UZF RECHARGE     =           0.0000          UZF RECHARGE     =           0.0000
               GW ET     =    17288296.0000                 GW ET     =           0.0000
     SURFACE LEAKAGE     =           0.0000       SURFACE LEAKAGE     =           0.0000
           AG WELLS      =  1410983296.0000             AG WELLS      =           0.0000

               TOTAL OUT =  3120888832.0000                 TOTAL OUT =          23.6210

                IN - OUT =       13568.0000                  IN - OUT =       9.5367E-06

     PERCENT DISCREPANCY =           0.00         PERCENT DISCREPANCY =           0.00






         TIME SUMMARY AT END OF TIME STEP   30 IN STRESS PERIOD   35
                    SECONDS     MINUTES      HOURS       DAYS        YEARS
                    -----------------------------------------------------------
   TIME STEP LENGTH  87667.      1461.1      24.352      1.0147     2.77799E-03
 STRESS PERIOD TIME 2.63000E+06  43833.      730.56      30.440     8.33397E-02
         TOTAL TIME 8.95061E+07 1.49177E+06  24863.      1036.0      2.8363    
1
1
                            STRESS PERIOD NO.   36, LENGTH =   2630000.    
                            -----------------------------------------------

                              NUMBER OF TIME STEPS =    30

                               MULTIPLIER FOR DELT =     1.000

                            INITIAL TIME STEP SIZE =   87666.66    

 REUSING NON-PARAMETER GHB CELLS FROM LAST STRESS PERIOD

      2 GHB CELLS

 REUSING STREAM SEGMENT DATA FROM LAST STRESS PERIOD



            AREAL INFILTRATION RATE
 READING ON UNIT   19 WITH FORMAT: (10F4.0)            

            1           2           3           4           5           6           7           8           9          10
 ........................................................................................................................
   1   1.2000E-09   0.000       0.000       0.000       0.000       0.000       0.000       0.000       0.000       0.000    
   2   2.1000E-09  2.0000E-09  8.0000E-10  8.5000E-09   0.000       0.000       0.000       0.000       0.000       0.000    
   3   5.0000E-10  1.1000E-09  8.8000E-09  5.5000E-09   0.000       0.000       0.000       0.000       0.000       0.000    
   4   8.5000E-09  1.1000E-09  1.1000E-09  1.1000E-09  2.0000E-09   0.000       0.000       0.000       0.000       0.000    
   5   8.5000E-09  1.1000E-09  1.1000E-09  1.1000E-09  1.1000E-09   0.000       0.000       0.000       0.000       0.000    
   6   8.5000E-09  5.2000E-09  2.1000E-09  1.1000E-09  1.5000E-09   0.000       0.000       0.000       0.000       0.000    
   7   8.5000E-09  5.2000E-09  2.1000E-09  1.2000E-09  2.0000E-09   0.000       0.000       0.000       0.000       0.000    
   8   5.0000E-10  5.2000E-09  2.1000E-09  1.2000E-09  5.0000E-09   0.000       0.000       0.000       0.000       0.000    
   9   5.0000E-10  5.2000E-09  2.1000E-09  1.2000E-09  5.0000E-09   0.000       0.000       0.000       0.000       0.000    
  10   5.0000E-10  5.2000E-09  2.1000E-09  1.2000E-09  5.8000E-09   0.000       0.000       0.000       0.000       0.000    
  11   1.0000E-10  1.1000E-09  1.1000E-09  1.2000E-09  5.0000E-09   0.000       0.000       0.000       0.000       0.000    
  12   1.1000E-09  1.1000E-09  1.1000E-09  1.1000E-09  2.0000E-09   0.000       0.000       0.000       0.000       0.000    
  13   1.1000E-09  2.2000E-09  2.2000E-09  2.1000E-09  1.0000E-09   0.000       0.000       0.000       0.000       0.000    
  14   2.0000E-10  5.5000E-09  5.5000E-09  5.2000E-09  1.0000E-09   0.000       0.000       0.000       0.000       0.000    
  15    0.000      8.8000E-09  8.8000E-09   0.000       0.000       0.000       0.000       0.000       0.000       0.000    

                  ET RATE =  5.000000E-10

 USING ET EXTINCTION DEPTH FROM PREVIOUS STRESS PERIOD. CURRENT PERIOD IS:      36

 USING EXTINCTION WATER CONTENT FROM PREVIOUS STRESS PERIOD. CURRENT PERIOD IS:      36

 USING AIR ENTRY PRESSURE FROM PREVIOUS STRESS PERIOD. CURRENT PERIOD IS:      36

 USING ROOT PRESSURE HEAD FROM PREVIOUS STRESS PERIOD. CURRENT PERIOD IS:      36

 USING ROOT ACTIVITY FROM PREVIOUS STRESS PERIOD. CURRENT PERIOD IS:      36

 PROCESSING AG STRESS PERIOD DATA

 READING AG STRESS PERIOD DATA

 READING IRRIGATION WELL

 END PROCESSING AG STRESS PERIOD DATA OPTIONS
 
 SOLVING FOR HEAD 
                                                   Max.-Head-Change                         Max.-Flux-Residual
  Residual-Control   Outer-Iter.   Inner-Iter.     Column Row Layer    Maximum-Head-Change  Column Row Layer    Maximum-Flux-Residual          L2-NORM 
          0                 1           2             4    7     1       0.3483516188E-01       4    7    1         0.1838725152E+01      0.4159986360E+01
          0                 2           2             4    7     1      -0.3386711595E-02       4    7    1        -0.1837751120E+00      0.4158514609E+00
          0                 3           2             4    7     1       0.2304493478E-03       4    7    1         0.1285458857E-01      0.2909526440E-01
          0                 4           1             4    7     1      -0.9158351910E-05       4    7    1        -0.5250964059E-03      0.1189024134E-02

    ------------------------------------------------
       NWT REQUIRED            4 OUTER ITERATIONS 
       AND A TOTAL OF          7 INNER ITERATIONS.
    ------------------------------------------------

 NO OUTPUT CONTROL FOR STRESS PERIOD   36   TIME STEP    1
 
 SOLVING FOR HEAD 
                                                   Max.-Head-Change                         Max.-Flux-Residual
  Residual-Control   Outer-Iter.   Inner-Iter.     Column Row Layer    Maximum-Head-Change  Column Row Layer    Maximum-Flux-Residual          L2-NORM 
          0                 1           2             4    7     1       0.3430318790E-01       4    7    1         0.1809956717E+01      0.4113456456E+01
          0                 2           2             4    7     1      -0.3334991284E-02       4    7    1        -0.1808997109E+00      0.4111996453E+00
          0                 3           2             4    7     1       0.2269299813E-03       4    7    1         0.1265345860E-01      0.2876976266E-01
          0                 4           1             4    7     1      -0.9018484425E-05       4    7    1        -0.5168802215E-03      0.1175725877E-02

    ------------------------------------------------
       NWT REQUIRED            4 OUTER ITERATIONS 
       AND A TOTAL OF          7 INNER ITERATIONS.
    ------------------------------------------------

 NO OUTPUT CONTROL FOR STRESS PERIOD   36   TIME STEP    2
 
 SOLVING FOR HEAD 
                                                   Max.-Head-Change                         Max.-Flux-Residual
  Residual-Control   Outer-Iter.   Inner-Iter.     Column Row Layer    Maximum-Head-Change  Column Row Layer    Maximum-Flux-Residual          L2-NORM 
          0                 1           2             4    7     1       0.3379150490E-01       4    7    1         0.1782316342E+01      0.4068206526E+01
          0                 2           2             4    7     1      -0.3285243779E-02       4    7    1        -0.1781370623E+00      0.4066758255E+00
          0                 3           2             4    7     1       0.2235448580E-03       4    7    1         0.1246021560E-01      0.2845320889E-01
          0                 4           1             4    7     1      -0.8883951492E-05       4    7    1        -0.5089862068E-03      0.1162780832E-02

    ------------------------------------------------
       NWT REQUIRED            4 OUTER ITERATIONS 
       AND A TOTAL OF          7 INNER ITERATIONS.
    ------------------------------------------------

 NO OUTPUT CONTROL FOR STRESS PERIOD   36   TIME STEP    3
 
 SOLVING FOR HEAD 
                                                   Max.-Head-Change                         Max.-Flux-Residual
  Residual-Control   Outer-Iter.   Inner-Iter.     Column Row Layer    Maximum-Head-Change  Column Row Layer    Maximum-Flux-Residual          L2-NORM 
          0                 1           2             4    7     1       0.3329888936E-01       4    7    1         0.1755735307E+01      0.4024150773E+01
          0                 2           2             4    7     1      -0.3237350121E-02       4    7    1        -0.1754802974E+00      0.4022714237E+00
          0                 3           2             4    7     1       0.2202858847E-03       4    7    1         0.1227437916E-01      0.2814501738E-01
          0                 4           1             4    7     1      -0.8754432366E-05       4    7    1        -0.5013947689E-03      0.1150214135E-02

    ------------------------------------------------
       NWT REQUIRED            4 OUTER ITERATIONS 
       AND A TOTAL OF          7 INNER ITERATIONS.
    ------------------------------------------------

 NO OUTPUT CONTROL FOR STRESS PERIOD   36   TIME STEP    4
 
 SOLVING FOR HEAD 
                                                   Max.-Head-Change                         Max.-Flux-Residual
  Residual-Control   Outer-Iter.   Inner-Iter.     Column Row Layer    Maximum-Head-Change  Column Row Layer    Maximum-Flux-Residual          L2-NORM 
          0                 1           2             4    7     1       0.3282395103E-01       4    7    1         0.1730135602E+01      0.3981219173E+01
          0                 2           2             4    7     1      -0.3191175143E-02       4    7    1        -0.1729216189E+00      0.3979794285E+00
          0                 3           2             4    7     1       0.2171438631E-03       4    7    1         0.1209540384E-01      0.2784469845E-01
          0                 4           1             4    7     1      -0.8629561862E-05       4    7    1        -0.4940836261E-03      0.1137910666E-02

    ------------------------------------------------
       NWT REQUIRED            4 OUTER ITERATIONS 
       AND A TOTAL OF          7 INNER ITERATIONS.
    ------------------------------------------------

 NO OUTPUT CONTROL FOR STRESS PERIOD   36   TIME STEP    5
 
 SOLVING FOR HEAD 
                                                   Max.-Head-Change                         Max.-Flux-Residual
  Residual-Control   Outer-Iter.   Inner-Iter.     Column Row Layer    Maximum-Head-Change  Column Row Layer    Maximum-Flux-Residual          L2-NORM 
          0                 1           2             4    7     1       0.3236553517E-01       4    7    1         0.1705452431E+01      0.3939334591E+01
          0                 2           2             4    7     1      -0.3146606571E-02       4    7    1        -0.1704545500E+00      0.3937921392E+00
          0                 3           2             4    7     1       0.2141111528E-03       4    7    1         0.1192283657E-01      0.2755169834E-01
          0                 4           1             4    7     1      -0.8509035468E-05       4    7    1        -0.4870342693E-03      0.1125930747E-02

    ------------------------------------------------
       NWT REQUIRED            4 OUTER ITERATIONS 
       AND A TOTAL OF          7 INNER ITERATIONS.
    ------------------------------------------------

 NO OUTPUT CONTROL FOR STRESS PERIOD   36   TIME STEP    6
 
 SOLVING FOR HEAD 
                                                   Max.-Head-Change                         Max.-Flux-Residual
  Residual-Control   Outer-Iter.   Inner-Iter.     Column Row Layer    Maximum-Head-Change  Column Row Layer    Maximum-Flux-Residual          L2-NORM 
          0                 1           2             4    7     1       0.3192297866E-01       4    7    1         0.1681647784E+01      0.3898462753E+01
          0                 2           2             4    7     1      -0.3103579934E-02       4    7    1        -0.1680752917E+00      0.3897061142E+00
          0                 3           2             4    7     1       0.2111833671E-03       4    7    1         0.1175641164E-01      0.2726580548E-01
          0                 4           1             4    7     1      -0.8392678995E-05       4    7    1        -0.4802358192E-03      0.1115521783E-02

    ------------------------------------------------
       NWT REQUIRED            4 OUTER ITERATIONS 
       AND A TOTAL OF          7 INNER ITERATIONS.
    ------------------------------------------------

 NO OUTPUT CONTROL FOR STRESS PERIOD   36   TIME STEP    7
 
 SOLVING FOR HEAD 
                                                   Max.-Head-Change                         Max.-Flux-Residual
  Residual-Control   Outer-Iter.   Inner-Iter.     Column Row Layer    Maximum-Head-Change  Column Row Layer    Maximum-Flux-Residual          L2-NORM 
          0                 1           2             4    7     1       0.3149487449E-01       4    7    1         0.1658643555E+01      0.3858522343E+01
          0                 2           2             4    7     1      -0.3061958433E-02       4    7    1        -0.1657760370E+00      0.3857132329E+00
          0                 3           2             4    7     1       0.2083511969E-03       4    7    1         0.1159558291E-01      0.2698642461E-01
          0                 4           1             4    7     1      -0.8280122885E-05       4    7    1        -0.4736659885E-03      0.1102835866E-02

    ------------------------------------------------
       NWT REQUIRED            4 OUTER ITERATIONS 
       AND A TOTAL OF          7 INNER ITERATIONS.
    ------------------------------------------------

 NO OUTPUT CONTROL FOR STRESS PERIOD   36   TIME STEP    8
 
 SOLVING FOR HEAD 
                                                   Max.-Head-Change                         Max.-Flux-Residual
  Residual-Control   Outer-Iter.   Inner-Iter.     Column Row Layer    Maximum-Head-Change  Column Row Layer    Maximum-Flux-Residual          L2-NORM 
          0                 1           2             4    7     1       0.3108057829E-01       4    7    1         0.1636403233E+01      0.3819466483E+01
          0                 2           2             4    7     1      -0.3021679417E-02       4    7    1        -0.1635531363E+00      0.3818033414E+00
          0                 3           2             4    7     1       0.2056103789E-03       4    7    1         0.1144009512E-01      0.2671283816E-01
          0                 4           1             4    7     1      -0.8171197209E-05       4    7    1        -0.4673143396E-03      0.1091645676E-02

    ------------------------------------------------
       NWT REQUIRED            4 OUTER ITERATIONS 
       AND A TOTAL OF          7 INNER ITERATIONS.
    ------------------------------------------------

 NO OUTPUT CONTROL FOR STRESS PERIOD   36   TIME STEP    9
 
 SOLVING FOR HEAD 
                                                   Max.-Head-Change                         Max.-Flux-Residual
  Residual-Control   Outer-Iter.   Inner-Iter.     Column Row Layer    Maximum-Head-Change  Column Row Layer    Maximum-Flux-Residual          L2-NORM 
          0                 1           2             4    7     1       0.3067923612E-01       4    7    1         0.1614878830E+01      0.3781262465E+01
          0                 2           2             4    7     1      -0.2982659393E-02       4    7    1        -0.1614017935E+00      0.3779524350E+00
          0                 3           2             4    7     1       0.2029552314E-03       4    7    1         0.1128961274E-01      0.2644338124E-01
          0                 4           1             4    7     1      -0.8065676316E-05       4    7    1        -0.4611671568E-03      0.1080630012E-02

    ------------------------------------------------
       NWT REQUIRED            4 OUTER ITERATIONS 
       AND A TOTAL OF          7 INNER ITERATIONS.
    ------------------------------------------------

 NO OUTPUT CONTROL FOR STRESS PERIOD   36   TIME STEP   10
 
 SOLVING FOR HEAD 
                                                   Max.-Head-Change                         Max.-Flux-Residual
  Residual-Control   Outer-Iter.   Inner-Iter.     Column Row Layer    Maximum-Head-Change  Column Row Layer    Maximum-Flux-Residual          L2-NORM 
          0                 1           2             4    7     1       0.3029006288E-01       4    7    1         0.1594026098E+01      0.3743925436E+01
          0                 2           2             4    7     1      -0.2944823440E-02       4    7    1        -0.1593175853E+00      0.3742570650E+00
          0                 3           2             4    7     1       0.2003806568E-03       4    7    1         0.1114382642E-01      0.2618482389E-01
          0                 4           1             4    7     1      -0.7963357812E-05       4    7    1        -0.4552118319E-03      0.1070058965E-02

    ------------------------------------------------
       NWT REQUIRED            4 OUTER ITERATIONS 
       AND A TOTAL OF          7 INNER ITERATIONS.
    ------------------------------------------------

 NO OUTPUT CONTROL FOR STRESS PERIOD   36   TIME STEP   11
 
 SOLVING FOR HEAD 
                                                   Max.-Head-Change                         Max.-Flux-Residual
  Residual-Control   Outer-Iter.   Inner-Iter.     Column Row Layer    Maximum-Head-Change  Column Row Layer    Maximum-Flux-Residual          L2-NORM 
          0                 1           2             4    7     1       0.2991232711E-01       4    7    1         0.1573804253E+01      0.3707407646E+01
          0                 2           2             4    7     1      -0.2908099024E-02       4    7    1        -0.1572964357E+00      0.3706064436E+00
          0                 3           2             4    7     1       0.1978817190E-03       4    7    1         0.1100245100E-01      0.2592940217E-01
          0                 4           1             4    7     1      -0.7864045751E-05       4    7    1        -0.4494367004E-03      0.1059626179E-02

    ------------------------------------------------
       NWT REQUIRED            4 OUTER ITERATIONS 
       AND A TOTAL OF          7 INNER ITERATIONS.
    ------------------------------------------------

 NO OUTPUT CONTROL FOR STRESS PERIOD   36   TIME STEP   12
 
 SOLVING FOR HEAD 
                                                   Max.-Head-Change                         Max.-Flux-Residual
  Residual-Control   Outer-Iter.   Inner-Iter.     Column Row Layer    Maximum-Head-Change  Column Row Layer    Maximum-Flux-Residual          L2-NORM 
          0                 1           2             4    7     1       0.2954548443E-01       4    7    1         0.1554182738E+01      0.3671611846E+01
          0                 2           2             4    7     1      -0.2872433690E-02       4    7    1        -0.1553352900E+00      0.3670279970E+00
          0                 3           2             4    7     1       0.1954548483E-03       4    7    1         0.1086527281E-01      0.2567900638E-01
          0                 4           1             4    7     1      -0.7767597373E-05       4    7    1        -0.4438330234E-03      0.1049385035E-02

    ------------------------------------------------
       NWT REQUIRED            4 OUTER ITERATIONS 
       AND A TOTAL OF          7 INNER ITERATIONS.
    ------------------------------------------------

 NO OUTPUT CONTROL FOR STRESS PERIOD   36   TIME STEP   13
 
 SOLVING FOR HEAD 
                                                   Max.-Head-Change                         Max.-Flux-Residual
  Residual-Control   Outer-Iter.   Inner-Iter.     Column Row Layer    Maximum-Head-Change  Column Row Layer    Maximum-Flux-Residual          L2-NORM 
          0                 1           2             4    7     1       0.2918876885E-01       4    7    1         0.1535118719E+01      0.3636509566E+01
          0                 2           2             4    7     1      -0.2837752964E-02       4    7    1        -0.1534298671E+00      0.3635187350E+00
          0                 3           2             4    7     1       0.1930949773E-03       4    7    1         0.1073199240E-01      0.2543349020E-01
          0                 4           1             4    7     1      -0.7673811897E-05       4    7    1        -0.4383885828E-03      0.1039367656E-02

    ------------------------------------------------
       NWT REQUIRED            4 OUTER ITERATIONS 
       AND A TOTAL OF          7 INNER ITERATIONS.
    ------------------------------------------------

 NO OUTPUT CONTROL FOR STRESS PERIOD   36   TIME STEP   14
 
 SOLVING FOR HEAD 
                                                   Max.-Head-Change                         Max.-Flux-Residual
  Residual-Control   Outer-Iter.   Inner-Iter.     Column Row Layer    Maximum-Head-Change  Column Row Layer    Maximum-Flux-Residual          L2-NORM 
          0                 1           2             4    7     1       0.2884173838E-01       4    7    1         0.1516587065E+01      0.3602079146E+01
          0                 2           2             4    7     1      -0.2804013873E-02       4    7    1        -0.1515776550E+00      0.3600769934E+00
          0                 3           2             4    7     1       0.1907991817E-03       4    7    1         0.1060243405E-01      0.2519268223E-01
          0                 4           1             4    7     1      -0.7582572813E-05       4    7    1        -0.4330961810E-03      0.1029517212E-02

    ------------------------------------------------
       NWT REQUIRED            4 OUTER ITERATIONS 
       AND A TOTAL OF          7 INNER ITERATIONS.
    ------------------------------------------------

 NO OUTPUT CONTROL FOR STRESS PERIOD   36   TIME STEP   15
 
 SOLVING FOR HEAD 
                                                   Max.-Head-Change                         Max.-Flux-Residual
  Residual-Control   Outer-Iter.   Inner-Iter.     Column Row Layer    Maximum-Head-Change  Column Row Layer    Maximum-Flux-Residual          L2-NORM 
          0                 1           2             4    7     1       0.2850371241E-01       4    7    1         0.1498550275E+01      0.3568278651E+01
          0                 2           2             4    7     1      -0.2771150242E-02       4    7    1        -0.1497749052E+00      0.3566980663E+00
          0                 3           2             4    7     1       0.1885629578E-03       4    7    1         0.1047633553E-01      0.2495628037E-01
          0                 4           1             4    7     1      -0.7493701444E-05       4    7    1        -0.4279451184E-03      0.1019870603E-02

    ------------------------------------------------
       NWT REQUIRED            4 OUTER ITERATIONS 
       AND A TOTAL OF          7 INNER ITERATIONS.
    ------------------------------------------------

 NO OUTPUT CONTROL FOR STRESS PERIOD   36   TIME STEP   16
 
 SOLVING FOR HEAD 
                                                   Max.-Head-Change                         Max.-Flux-Residual
  Residual-Control   Outer-Iter.   Inner-Iter.     Column Row Layer    Maximum-Head-Change  Column Row Layer    Maximum-Flux-Residual          L2-NORM 
          0                 1           2             4    7     1       0.2817446047E-01       4    7    1         0.1480994937E+01      0.3535090115E+01
          0                 2           2             4    7     1      -0.2739139666E-02       4    7    1        -0.1480202774E+00      0.3533803401E+00
          0                 3           2             4    7     1       0.1863847821E-03       4    7    1         0.1035360313E-01      0.2472414200E-01
          0                 4           1             4    7     1      -0.7407137001E-05       4    7    1        -0.4229315589E-03      0.1010372482E-02

    ------------------------------------------------
       NWT REQUIRED            4 OUTER ITERATIONS 
       AND A TOTAL OF          7 INNER ITERATIONS.
    ------------------------------------------------

 NO OUTPUT CONTROL FOR STRESS PERIOD   36   TIME STEP   17
 
 SOLVING FOR HEAD 
                                                   Max.-Head-Change                         Max.-Flux-Residual
  Residual-Control   Outer-Iter.   Inner-Iter.     Column Row Layer    Maximum-Head-Change  Column Row Layer    Maximum-Flux-Residual          L2-NORM 
          0                 1           2             4    7     1       0.2785337479E-01       4    7    1         0.1463887225E+01      0.3502499981E+01
          0                 2           2             4    7     1      -0.2707923051E-02       4    7    1        -0.1463103903E+00      0.3501224180E+00
          0                 3           2             4    7     1       0.1842606325E-03       4    7    1         0.1023400027E-01      0.2449618533E-01
          0                 4           1             4    7     1      -0.7322719803E-05       4    7    1        -0.4180458516E-03      0.1001059109E-02

    ------------------------------------------------
       NWT REQUIRED            4 OUTER ITERATIONS 
       AND A TOTAL OF          7 INNER ITERATIONS.
    ------------------------------------------------

 NO OUTPUT CONTROL FOR STRESS PERIOD   36   TIME STEP   18
 
 SOLVING FOR HEAD 
                                                   Max.-Head-Change                         Max.-Flux-Residual
  Residual-Control   Outer-Iter.   Inner-Iter.     Column Row Layer    Maximum-Head-Change  Column Row Layer    Maximum-Flux-Residual          L2-NORM 
          0                 1           2             4    7     1       0.2753988857E-01       4    7    1         0.1447195626E+01      0.3470466840E+01
          0                 2           2             4    7     1      -0.2677445292E-02       4    7    1        -0.1446420943E+00      0.3469202206E+00
          0                 3           2             4    7     1       0.1821867601E-03       4    7    1         0.1011730671E-01      0.2427214682E-01
          0                 4           1             4    7     1      -0.7240300875E-05       4    7    1        -0.4132789993E-03      0.9919013031E-03

    ------------------------------------------------
       NWT REQUIRED            4 OUTER ITERATIONS 
       AND A TOTAL OF          7 INNER ITERATIONS.
    ------------------------------------------------

 NO OUTPUT CONTROL FOR STRESS PERIOD   36   TIME STEP   19
 
 SOLVING FOR HEAD 
                                                   Max.-Head-Change                         Max.-Flux-Residual
  Residual-Control   Outer-Iter.   Inner-Iter.     Column Row Layer    Maximum-Head-Change  Column Row Layer    Maximum-Flux-Residual          L2-NORM 
          0                 1           2             4    7     1       0.2723400368E-01       4    7    1         0.1430919926E+01      0.3438989321E+01
          0                 2           2             4    7     1      -0.2647706568E-02       4    7    1        -0.1430153679E+00      0.3437736000E+00
          0                 3           2             4    7     1       0.1801631758E-03       4    7    1         0.1000352086E-01      0.2405202815E-01
          0                 4           1             4    7     1      -0.7159880217E-05       4    7    1        -0.4086309182E-03      0.9829023341E-03

    ------------------------------------------------
       NWT REQUIRED            4 OUTER ITERATIONS 
       AND A TOTAL OF          7 INNER ITERATIONS.
    ------------------------------------------------

 NO OUTPUT CONTROL FOR STRESS PERIOD   36   TIME STEP   20
 
 SOLVING FOR HEAD 
                                                   Max.-Head-Change                         Max.-Flux-Residual
  Residual-Control   Outer-Iter.   Inner-Iter.     Column Row Layer    Maximum-Head-Change  Column Row Layer    Maximum-Flux-Residual          L2-NORM 
          0                 1           2             4    7     1       0.2693493139E-01       4    7    1         0.1415016460E+01      0.3408040413E+01
          0                 2           2             4    7     1      -0.2618630194E-02       4    7    1        -0.1414258466E+00      0.3406797854E+00
          0                 3           2             4    7     1       0.1781846624E-03       4    7    1         0.9892337481E-02      0.2383554159E-01
          0                 4           1             4    7     1      -0.7081251404E-05       4    7    1        -0.4040891552E-03      0.9740568588E-03

    ------------------------------------------------
       NWT REQUIRED            4 OUTER ITERATIONS 
       AND A TOTAL OF          7 INNER ITERATIONS.
    ------------------------------------------------

 NO OUTPUT CONTROL FOR STRESS PERIOD   36   TIME STEP   21
 
 SOLVING FOR HEAD 
                                                   Max.-Head-Change                         Max.-Flux-Residual
  Residual-Control   Outer-Iter.   Inner-Iter.     Column Row Layer    Maximum-Head-Change  Column Row Layer    Maximum-Flux-Residual          L2-NORM 
          0                 1           2             4    7     1       0.2664260197E-01       4    7    1         0.1399480803E+01      0.3377608327E+01
          0                 2           2             4    7     1      -0.2590209392E-02       4    7    1        -0.1398730882E+00      0.3376376424E+00
          0                 3           2             4    7     1       0.1762507585E-03       4    7    1         0.9783725632E-02      0.2362268552E-01
          0                 4           1             4    7     1      -0.7004394982E-05       4    7    1        -0.3996524429E-03      0.9653596136E-03

    ------------------------------------------------
       NWT REQUIRED            4 OUTER ITERATIONS 
       AND A TOTAL OF          7 INNER ITERATIONS.
    ------------------------------------------------

 NO OUTPUT CONTROL FOR STRESS PERIOD   36   TIME STEP   22
 
 SOLVING FOR HEAD 
                                                   Max.-Head-Change                         Max.-Flux-Residual
  Residual-Control   Outer-Iter.   Inner-Iter.     Column Row Layer    Maximum-Head-Change  Column Row Layer    Maximum-Flux-Residual          L2-NORM 
          0                 1           2             4    7     1       0.2635667904E-01       4    7    1         0.1384294752E+01      0.3347668474E+01
          0                 2           2             4    7     1      -0.2562411457E-02       4    7    1        -0.1383552734E+00      0.3346447422E+00
          0                 3           2             4    7     1       0.1743592381E-03       4    7    1         0.9677558048E-02      0.2341329778E-01
          0                 4           1             4    7     1      -0.6929223106E-05       4    7    1        -0.3953155531E-03      0.9568045206E-03

    ------------------------------------------------
       NWT REQUIRED            4 OUTER ITERATIONS 
       AND A TOTAL OF          7 INNER ITERATIONS.
    ------------------------------------------------

 NO OUTPUT CONTROL FOR STRESS PERIOD   36   TIME STEP   23
 
 SOLVING FOR HEAD 
                                                   Max.-Head-Change                         Max.-Flux-Residual
  Residual-Control   Outer-Iter.   Inner-Iter.     Column Row Layer    Maximum-Head-Change  Column Row Layer    Maximum-Flux-Residual          L2-NORM 
          0                 1           2             4    7     1       0.2607685772E-01       4    7    1         0.1369440867E+01      0.3318216116E+01
          0                 2           2             4    7     1      -0.2535204230E-02       4    7    1        -0.1368706586E+00      0.3316408416E+00
          0                 3           2             4    7     1       0.1725079140E-03       4    7    1         0.9573712779E-02      0.2320314417E-01
          0                 4           1             4    7     1      -0.6855648395E-05       4    7    1        -0.3910735534E-03      0.9482197553E-03

    ------------------------------------------------
       NWT REQUIRED            4 OUTER ITERATIONS 
       AND A TOTAL OF          7 INNER ITERATIONS.
    ------------------------------------------------

 NO OUTPUT CONTROL FOR STRESS PERIOD   36   TIME STEP   24
 
 SOLVING FOR HEAD 
                                                   Max.-Head-Change                         Max.-Flux-Residual
  Residual-Control   Outer-Iter.   Inner-Iter.     Column Row Layer    Maximum-Head-Change  Column Row Layer    Maximum-Flux-Residual          L2-NORM 
          0                 1           2             4    7     1       0.2580273017E-01       4    7    1         0.1354896178E+01      0.3289277248E+01
          0                 2           2             4    7     1      -0.2508555603E-02       4    7    1        -0.1354169481E+00      0.3288077751E+00
          0                 3           2             4    7     1       0.1706945999E-03       4    7    1         0.9472029202E-02      0.2300492228E-01
          0                 4           1             4    7     1      -0.6783585079E-05       4    7    1        -0.3869198688E-03      0.9401162514E-03

    ------------------------------------------------
       NWT REQUIRED            4 OUTER ITERATIONS 
       AND A TOTAL OF          7 INNER ITERATIONS.
    ------------------------------------------------

 NO OUTPUT CONTROL FOR STRESS PERIOD   36   TIME STEP   25
 
 SOLVING FOR HEAD 
                                                   Max.-Head-Change                         Max.-Flux-Residual
  Residual-Control   Outer-Iter.   Inner-Iter.     Column Row Layer    Maximum-Head-Change  Column Row Layer    Maximum-Flux-Residual          L2-NORM 
          0                 1           2             4    7     1       0.2553429575E-01       4    7    1         0.1340661024E+01      0.3260825466E+01
          0                 2           2             4    7     1      -0.2482457972E-02       4    7    1        -0.1339941759E+00      0.3259482599E+00
          0                 3           2             4    7     1       0.1689187785E-03       4    7    1         0.9372509718E-02      0.2280481054E-01
          0                 4           1             4    7     1      -0.6713011285E-05       4    7    1        -0.3828545748E-03      0.9319414399E-03

    ------------------------------------------------
       NWT REQUIRED            4 OUTER ITERATIONS 
       AND A TOTAL OF          7 INNER ITERATIONS.
    ------------------------------------------------

 NO OUTPUT CONTROL FOR STRESS PERIOD   36   TIME STEP   26
 
 SOLVING FOR HEAD 
                                                   Max.-Head-Change                         Max.-Flux-Residual
  Residual-Control   Outer-Iter.   Inner-Iter.     Column Row Layer    Maximum-Head-Change  Column Row Layer    Maximum-Flux-Residual          L2-NORM 
          0                 1           2             4    7     1       0.2527104068E-01       4    7    1         0.1326706589E+01      0.3232829086E+01
          0                 2           2             4    7     1      -0.2456863943E-02       4    7    1        -0.1325994617E+00      0.3231650962E+00
          0                 3           2             4    7     1       0.1671772260E-03       4    7    1         0.9274952864E-02      0.2261014225E-01
          0                 4           1             4    7     1      -0.6643799219E-05       4    7    1        -0.3788694457E-03      0.9239811949E-03

    ------------------------------------------------
       NWT REQUIRED            4 OUTER ITERATIONS 
       AND A TOTAL OF          7 INNER ITERATIONS.
    ------------------------------------------------

 NO OUTPUT CONTROL FOR STRESS PERIOD   36   TIME STEP   27
 
 SOLVING FOR HEAD 
                                                   Max.-Head-Change                         Max.-Flux-Residual
  Residual-Control   Outer-Iter.   Inner-Iter.     Column Row Layer    Maximum-Head-Change  Column Row Layer    Maximum-Flux-Residual          L2-NORM 
          0                 1           2             4    7     1       0.2501287077E-01       4    7    1         0.1313027988E+01      0.3205261593E+01
          0                 2           2             4    7     1      -0.2431764263E-02       4    7    1        -0.1312323171E+00      0.3204093878E+00
          0                 3           2             4    7     1       0.1654693129E-03       4    7    1         0.9179324483E-02      0.2241734730E-01
          0                 4           1             4    7     1      -0.6575924937E-05       4    7    1        -0.3749631326E-03      0.9161202738E-03

    ------------------------------------------------
       NWT REQUIRED            4 OUTER ITERATIONS 
       AND A TOTAL OF          7 INNER ITERATIONS.
    ------------------------------------------------

 NO OUTPUT CONTROL FOR STRESS PERIOD   36   TIME STEP   28
 
 SOLVING FOR HEAD 
                                                   Max.-Head-Change                         Max.-Flux-Residual
  Residual-Control   Outer-Iter.   Inner-Iter.     Column Row Layer    Maximum-Head-Change  Column Row Layer    Maximum-Flux-Residual          L2-NORM 
          0                 1           2             4    7     1       0.2475970530E-01       4    7    1         0.1299620344E+01      0.3178111760E+01
          0                 2           2             4    7     1      -0.2407151133E-02       4    7    1        -0.1298922548E+00      0.3176955010E+00
          0                 3           2             4    7     1       0.1637945064E-03       4    7    1         0.9085590429E-02      0.2222755414E-01
          0                 4           1             4    7     1      -0.6509365296E-05       4    7    1        -0.3711341662E-03      0.9083384850E-03

    ------------------------------------------------
       NWT REQUIRED            4 OUTER ITERATIONS 
       AND A TOTAL OF          7 INNER ITERATIONS.
    ------------------------------------------------

 NO OUTPUT CONTROL FOR STRESS PERIOD   36   TIME STEP   29
 
 SOLVING FOR HEAD 
                                                   Max.-Head-Change                         Max.-Flux-Residual
  Residual-Control   Outer-Iter.   Inner-Iter.     Column Row Layer    Maximum-Head-Change  Column Row Layer    Maximum-Flux-Residual          L2-NORM 
          0                 1           2             4    7     1       0.2451119812E-01       4    7    1         0.1286464874E+01      0.3151367079E+01
          0                 2           2             4    7     1      -0.2382990898E-02       4    7    1        -0.1285773972E+00      0.3150219737E+00
          0                 3           2             4    7     1       0.1621505184E-03       4    7    1         0.8993619432E-02      0.2204042638E-01
          0                 4           1             4    7     1      -0.6444031419E-05       4    7    1        -0.3673772449E-03      0.9006973005E-03

    ------------------------------------------------
       NWT REQUIRED            4 OUTER ITERATIONS 
       AND A TOTAL OF          7 INNER ITERATIONS.
    ------------------------------------------------

 NO OUTPUT CONTROL FOR STRESS PERIOD   36   TIME STEP   30



 STREAM LISTING     PERIOD     36   STEP       30

 LAYER ROW COL. STREAM  RCH.  FLOW INTO     FLOW TO   FLOW OUT OF   OVRLND.     DIRECT     STREAM       STREAM     STREAM     STREAM   STREAMBED  STREAMBED
                SEG.NO.  NO.  STRM. RCH.    AQUIFER    STRM. RCH.    RUNOFF     PRECIP       ET          HEAD       DEPTH      WIDTH   CONDCTNC.   GRADIENT

   1    1    1     1     1    1.9000E+01  2.1427E-01   1.8786E+01  0.000E+00  0.000E+00  0.000E+00  1.09413E+03  1.082E+00  1.166E+01  5.249E-02  1.361E+00
   1    2    2     1     2    1.8786E+01  3.3054E-01   1.8455E+01  0.000E+00  0.000E+00  0.000E+00  1.08914E+03  1.077E+00  1.158E+01  8.107E-02  1.359E+00
   1    3    3     1     3    1.8455E+01  2.8064E-01   1.8175E+01  0.000E+00  0.000E+00  0.000E+00  1.08349E+03  1.072E+00  1.149E+01  6.892E-02  1.357E+00
   1    3    4     1     4    1.8175E+01  2.5740E-01   1.7917E+01  0.000E+00  0.000E+00  0.000E+00  1.07848E+03  1.068E+00  1.140E+01  6.328E-02  1.356E+00
   1    4    5     2     1    1.5917E+01  3.0542E-01   1.5612E+01  0.000E+00  0.000E+00  0.000E+00  1.07285E+03  9.157E-01  1.200E+01  7.800E-02  1.305E+00
   1    5    6     2     2    1.5612E+01  2.3438E-01   1.5377E+01  0.000E+00  0.000E+00  0.000E+00  1.06742E+03  9.063E-01  1.200E+01  6.000E-02  1.302E+00
   1    6    6     2     3    1.5377E+01  2.3388E-01   1.5143E+01  0.000E+00  0.000E+00  0.000E+00  1.06269E+03  8.980E-01  1.200E+01  6.000E-02  1.299E+00
   1    7    6     2     4    1.5143E+01  2.3338E-01   1.4910E+01  0.000E+00  0.000E+00  0.000E+00  1.05797E+03  8.897E-01  1.200E+01  6.000E-02  1.297E+00
   1    8    6     2     5    1.4910E+01  2.3289E-01   1.4677E+01  0.000E+00  0.000E+00  0.000E+00  1.05324E+03  8.814E-01  1.200E+01  6.000E-02  1.294E+00
   1    3    5     3     1    2.0000E+00  2.8252E-01   1.7175E+00  0.000E+00  0.000E+00  0.000E+00  1.07555E+03  1.909E+00  9.636E+00  7.227E-02  1.955E+00
   1    3    6     3     2    1.7175E+00  2.4905E-01   1.4684E+00  0.000E+00  0.000E+00  0.000E+00  1.07264E+03  1.727E+00  8.909E+00  6.682E-02  1.864E+00
   1    3    7     3     3    1.4684E+00  1.9718E-01   1.2712E+00  0.000E+00  0.000E+00  0.000E+00  1.06987E+03  1.555E+00  8.218E+00  5.547E-02  1.777E+00
   1    4    8     3     4    1.2712E+00  2.2567E-01   1.0456E+00  0.000E+00  0.000E+00  0.000E+00  1.06682E+03  1.364E+00  7.455E+00  6.709E-02  1.682E+00
   1    5    8     3     5    1.0456E+00  1.5790E-01   8.8768E-01  0.000E+00  0.000E+00  0.000E+00  1.06362E+03  1.164E+00  6.655E+00  4.991E-02  1.582E+00
   1    6    8     3     6    8.8768E-01  5.5980E-02   8.3170E-01  0.000E+00  0.000E+00  0.000E+00  1.06158E+03  1.036E+00  6.145E+00  1.844E-02  1.518E+00
   1    5   10     4     1    1.0000E+01  9.0919E-02   9.9091E+00  0.000E+00  0.000E+00  0.000E+00  1.07836E+03  6.368E-01  1.000E+01  2.500E-02  1.212E+00
   1    5    9     4     2    9.9091E+00  1.8158E-01   9.7275E+00  0.000E+00  0.000E+00  0.000E+00  1.07154E+03  6.315E-01  1.000E+01  5.000E-02  1.211E+00
   1    6    8     4     3    9.7275E+00  1.2689E-01   9.6006E+00  0.000E+00  0.000E+00  0.000E+00  1.06381E+03  6.256E-01  1.000E+01  3.500E-02  1.209E+00
   1    6    8     5     1    1.0432E+01  2.2686E-01   1.0205E+01  0.000E+00  0.000E+00  0.000E+00  1.05868E+03  6.790E-01  1.542E+01  6.166E-02  1.226E+00
   1    7    7     5     2    1.0205E+01  2.7894E-01   9.9265E+00  0.000E+00  0.000E+00  0.000E+00  1.05417E+03  6.732E-01  1.519E+01  7.594E-02  1.224E+00
   1    8    7     5     3    9.9265E+00  1.9221E-01   9.7343E+00  0.000E+00  0.000E+00  0.000E+00  1.04992E+03  6.676E-01  1.497E+01  5.241E-02  1.223E+00
   1    8    6     5     4    9.7343E+00  1.3577E-01   9.5985E+00  0.000E+00  0.000E+00  0.000E+00  1.04691E+03  6.637E-01  1.482E+01  3.706E-02  1.221E+00
   1    9    6     6     1    2.4276E+01  2.5176E-01   2.4024E+01  0.000E+00  0.000E+00  0.000E+00  1.04392E+03  1.196E+00  1.200E+01  6.000E-02  1.399E+00
   1   10    7     6     2    2.4024E+01  2.5131E-01   2.3773E+01  0.000E+00  0.000E+00  0.000E+00  1.03937E+03  1.188E+00  1.200E+01  6.000E-02  1.396E+00
   1   11    7     6     3    2.3773E+01  2.5086E-01   2.3522E+01  0.000E+00  0.000E+00  0.000E+00  1.03482E+03  1.181E+00  1.200E+01  6.000E-02  1.394E+00
   1   12    7     6     4    2.3522E+01  2.5041E-01   2.3271E+01  0.000E+00  0.000E+00  0.000E+00  1.03026E+03  1.173E+00  1.200E+01  6.000E-02  1.391E+00
   1   13    7     6     5    2.3271E+01  7.9270E-03   2.3263E+01  0.000E+00  0.000E+00  0.000E+00  1.02708E+03  1.170E+00  1.200E+01  2.400E-02  1.101E-01
   1   14    9     7     1    1.5000E+02  1.3578E+00   1.4864E+02  0.000E+00  0.000E+00  0.000E+00  1.03987E+03  2.288E+00  5.529E+01  5.593E-01  8.092E-01
   1   13    8     7     2    1.4864E+02  1.9287E+00   1.4671E+02  0.000E+00  0.000E+00  0.000E+00  1.03478E+03  2.279E+00  5.526E+01  6.148E-01  1.046E+00
   1   13    7     7     3    1.4671E+02  1.6419E+00   1.4507E+02  0.000E+00  0.000E+00  0.000E+00  1.02969E+03  2.269E+00  5.521E+01  5.584E-01  9.801E-01
   1   13    6     8     1    1.6834E+02  1.0839E+00   1.6725E+02  0.000E+00  0.000E+00  0.000E+00  1.02481E+03  2.938E+00  4.260E+01  4.341E-01  8.323E-01
   1   13    5     8     2    1.6725E+02  3.3147E-01   1.6692E+02  0.000E+00  0.000E+00  0.000E+00  1.01856E+03  2.933E+00  4.253E+01  4.334E-01  2.549E-01
   1   13    4     8     3    1.6692E+02 -1.9001E+00   1.6882E+02  0.000E+00  0.000E+00  0.000E+00  1.01231E+03  2.938E+00  4.260E+01  4.342E+00 -1.459E-01
   1   13    3     8     4    1.6882E+02 -3.3988E+00   1.7222E+02  0.000E+00  0.000E+00  0.000E+00  1.00608E+03  2.956E+00  4.286E+01  4.367E+00 -2.594E-01
   1   13    2     8     5    1.7222E+02 -2.5300E+00   1.7475E+02  0.000E+00  0.000E+00  0.000E+00  9.99850E+02  2.975E+00  4.313E+01  4.395E+00 -1.919E-01
   1   13    1     8     6    1.7475E+02 -1.9681E+00   1.7672E+02  0.000E+00  0.000E+00  0.000E+00  9.94864E+02  2.989E+00  4.334E+01  2.650E+00 -2.476E-01





UNSATURATED ZONE PACKAGE VOLUMETRIC BUDGET FOR  TIME STEP    30 STRESS PERIOD   36
  ------------------------------------------------------------------------------



     CUMULATIVE VOLUMES      L**3       RATES FOR THIS TIME STEP      L**3/T
     ------------------                 ------------------------

           IN:                                      IN:
           ---                                      ---
        INFILTRATION =  1816767425.9680          INFILTRATION =           4.4075

          OUT:                                     OUT:
          ----                                     ----
              UZF ET =  1498925432.1121                UZF ET =           0.7250
        UZF RECHARGE =   221726016.9887          UZF RECHARGE =           0.0161

            IN - OUT =    96115976.8672              IN - OUT =           3.6664

          STORAGE:                                 STORAGE:
          --------                                 --------
      STORAGE CHANGE =    96117481.2623        STORAGE CHANGE =           3.6664

 PERCENT DISCREPANCY IS DIFFERENCE BETWEEN IN-OUT MINUS CHANGE IN STORAGE
 DIVIDED BY THE AVERAGE OF IN AND OUT TIMES 100

 PERCENT DISCREPANCY =          -0.00     PERCENT DISCREPANCY =           0.00






1
  VOLUMETRIC BUDGET FOR AGRICULTURAL FIELDS AT TIME STEP   30, STRESS PERIOD  36
  ------------------------------------------------------------------------------

     CUMULATIVE VOLUMES      L**3       RATES FOR THIS TIME STEP      L**3/T
     ------------------                 ------------------------

           IN:                                      IN:
           ---                                      ---
               AG WELLS  =  1410983296.0000                 AG WELLS  =           0.0000
      DIVERSION SEGMENTS =           0.0000        DIVERSION SEGMENTS =           0.0000
           GW IRRIGATION =           0.0000             GW IRRIGATION =           0.0000
           SW IRRIGATION =           0.0000             SW IRRIGATION =           0.0000
        SYSTEM LOSSES GW =           0.0000          SYSTEM LOSSES GW =           0.0000
        SYSTEM LOSSES SW =           0.0000          SYSTEM LOSSES SW =           0.0000

                TOTAL IN =  1410983296.0000                  TOTAL IN =           0.0000

          OUT:                                     OUT:
          ----                                     ----
               AG WELLS  =           0.0000                 AG WELLS  =           0.0000
      DIVERSION SEGMENTS =           0.0000        DIVERSION SEGMENTS =           0.0000
           GW IRRIGATION =  1410983296.0000             GW IRRIGATION =           0.0000
           SW IRRIGATION =           0.0000             SW IRRIGATION =           0.0000
        SYSTEM LOSSES GW =           0.0000          SYSTEM LOSSES GW =           0.0000
        SYSTEM LOSSES SW =           0.0000          SYSTEM LOSSES SW =           0.0000

               TOTAL OUT =  1410983296.0000                 TOTAL OUT =           0.0000

                IN - OUT =           0.0000                  IN - OUT =           0.0000

     PERCENT DISCREPANCY =           0.00         PERCENT DISCREPANCY =           0.00



1
  VOLUMETRIC BUDGET FOR ENTIRE MODEL AT END OF TIME STEP   30, STRESS PERIOD  36
  ------------------------------------------------------------------------------

     CUMULATIVE VOLUMES      L**3       RATES FOR THIS TIME STEP      L**3/T
     ------------------                 ------------------------

           IN:                                      IN:
           ---                                      ---
             STORAGE     =  1801628800.0000               STORAGE     =           8.4420
       CONSTANT HEAD     =           0.0000         CONSTANT HEAD     =           0.0000
     HEAD DEP BOUNDS     =    26333606.0000       HEAD DEP BOUNDS     =           0.2873
      STREAM LEAKAGE     =  1129212800.0000        STREAM LEAKAGE     =          12.0803
        UZF RECHARGE     =   221725984.0000          UZF RECHARGE     =       1.6065E-02
               GW ET     =           0.0000                 GW ET     =           0.0000
     SURFACE LEAKAGE     =           0.0000       SURFACE LEAKAGE     =           0.0000
           AG WELLS      =           0.0000             AG WELLS      =           0.0000

                TOTAL IN =  3178901248.0000                  TOTAL IN =          20.8256

          OUT:                                     OUT:
          ----                                     ----
             STORAGE     =   776493632.0000               STORAGE     =          10.7394
       CONSTANT HEAD     =           0.0000         CONSTANT HEAD     =           0.0000
     HEAD DEP BOUNDS     =    26953258.0000       HEAD DEP BOUNDS     =           0.2891
      STREAM LEAKAGE     =   947169216.0000        STREAM LEAKAGE     =           9.7971
        UZF RECHARGE     =           0.0000          UZF RECHARGE     =           0.0000
               GW ET     =    17288296.0000                 GW ET     =           0.0000
     SURFACE LEAKAGE     =           0.0000       SURFACE LEAKAGE     =           0.0000
           AG WELLS      =  1410983296.0000             AG WELLS      =           0.0000

               TOTAL OUT =  3178887680.0000                 TOTAL OUT =          20.8255

                IN - OUT =       13568.0000                  IN - OUT =       1.1444E-05

     PERCENT DISCREPANCY =           0.00         PERCENT DISCREPANCY =           0.00






         TIME SUMMARY AT END OF TIME STEP   30 IN STRESS PERIOD   36
                    SECONDS     MINUTES      HOURS       DAYS        YEARS
                    -----------------------------------------------------------
   TIME STEP LENGTH  87667.      1461.1      24.352      1.0147     2.77799E-03
 STRESS PERIOD TIME 2.63000E+06  43833.      730.56      30.440     8.33397E-02
         TOTAL TIME 9.21360E+07 1.53560E+06  25593.      1066.4      2.9196    
1
1
                            STRESS PERIOD NO.   37, LENGTH =   2630000.    
                            -----------------------------------------------

                              NUMBER OF TIME STEPS =    30

                               MULTIPLIER FOR DELT =     1.000

                            INITIAL TIME STEP SIZE =   87666.66    

 REUSING NON-PARAMETER GHB CELLS FROM LAST STRESS PERIOD

      2 GHB CELLS

 REUSING STREAM SEGMENT DATA FROM LAST STRESS PERIOD



            AREAL INFILTRATION RATE
 READING ON UNIT   19 WITH FORMAT: (10F4.0)            

            1           2           3           4           5           6           7           8           9          10
 ........................................................................................................................
   1   1.2000E-09   0.000       0.000       0.000       0.000       0.000       0.000       0.000       0.000       0.000    
   2   2.1000E-09  2.0000E-09  8.0000E-10  8.5000E-09   0.000       0.000       0.000       0.000       0.000       0.000    
   3   5.0000E-10  1.1000E-09  8.8000E-09  5.5000E-09   0.000       0.000       0.000       0.000       0.000       0.000    
   4   8.5000E-09  1.1000E-09  1.1000E-09  1.1000E-09  2.0000E-09   0.000       0.000       0.000       0.000       0.000    
   5   8.5000E-09  1.1000E-09  1.1000E-09  1.1000E-09  1.1000E-09   0.000       0.000       0.000       0.000       0.000    
   6   8.5000E-09  5.2000E-09  2.1000E-09  1.1000E-09  1.5000E-09   0.000       0.000       0.000       0.000       0.000    
   7   8.5000E-09  5.2000E-09  2.1000E-09  1.2000E-09  2.0000E-09   0.000       0.000       0.000       0.000       0.000    
   8   5.0000E-10  5.2000E-09  2.1000E-09  1.2000E-09  5.0000E-09   0.000       0.000       0.000       0.000       0.000    
   9   5.0000E-10  5.2000E-09  2.1000E-09  1.2000E-09  5.0000E-09   0.000       0.000       0.000       0.000       0.000    
  10   5.0000E-10  5.2000E-09  2.1000E-09  1.2000E-09  5.8000E-09   0.000       0.000       0.000       0.000       0.000    
  11   1.0000E-10  1.1000E-09  1.1000E-09  1.2000E-09  5.0000E-09   0.000       0.000       0.000       0.000       0.000    
  12   1.1000E-09  1.1000E-09  1.1000E-09  1.1000E-09  2.0000E-09   0.000       0.000       0.000       0.000       0.000    
  13   1.1000E-09  2.2000E-09  2.2000E-09  2.1000E-09  1.0000E-09   0.000       0.000       0.000       0.000       0.000    
  14   2.0000E-10  5.5000E-09  5.5000E-09  5.2000E-09  1.0000E-09   0.000       0.000       0.000       0.000       0.000    
  15    0.000      8.8000E-09  8.8000E-09   0.000       0.000       0.000       0.000       0.000       0.000       0.000    

                  ET RATE =  5.000000E-10

 USING ET EXTINCTION DEPTH FROM PREVIOUS STRESS PERIOD. CURRENT PERIOD IS:      37

 USING EXTINCTION WATER CONTENT FROM PREVIOUS STRESS PERIOD. CURRENT PERIOD IS:      37

 USING AIR ENTRY PRESSURE FROM PREVIOUS STRESS PERIOD. CURRENT PERIOD IS:      37

 USING ROOT PRESSURE HEAD FROM PREVIOUS STRESS PERIOD. CURRENT PERIOD IS:      37

 USING ROOT ACTIVITY FROM PREVIOUS STRESS PERIOD. CURRENT PERIOD IS:      37

 PROCESSING AG STRESS PERIOD DATA

 READING AG STRESS PERIOD DATA

 READING IRRIGATION WELL

 END PROCESSING AG STRESS PERIOD DATA OPTIONS
 
 SOLVING FOR HEAD 
                                                   Max.-Head-Change                         Max.-Flux-Residual
  Residual-Control   Outer-Iter.   Inner-Iter.     Column Row Layer    Maximum-Head-Change  Column Row Layer    Maximum-Flux-Residual          L2-NORM 
          0                 1           2             4    7     1       0.2426716866E-01       4    7    1         0.1273550927E+01      0.3125017597E+01
          0                 2           2             4    7     1      -0.2359266003E-02       4    7    1        -0.1272866798E+00      0.3123880164E+00
          0                 3           2             4    7     1       0.1605361532E-03       4    7    1         0.8903337002E-02      0.2185622669E-01
          0                 4           1             4    7     1      -0.6379874261E-05       4    7    1        -0.3636892852E-03      0.8931710485E-03

    ------------------------------------------------
       NWT REQUIRED            4 OUTER ITERATIONS 
       AND A TOTAL OF          7 INNER ITERATIONS.
    ------------------------------------------------

 NO OUTPUT CONTROL FOR STRESS PERIOD   37   TIME STEP    1
 
 SOLVING FOR HEAD 
                                                   Max.-Head-Change                         Max.-Flux-Residual
  Residual-Control   Outer-Iter.   Inner-Iter.     Column Row Layer    Maximum-Head-Change  Column Row Layer    Maximum-Flux-Residual          L2-NORM 
          0                 1           2             4    7     1       0.2402743193E-01       4    7    1         0.1260869141E+01      0.3099046974E+01
          0                 2           2             4    7     1      -0.2335958462E-02       4    7    1        -0.1260191670E+00      0.3097919587E+00
          0                 3           2             4    7     1       0.1589501870E-03       4    7    1         0.8814677685E-02      0.2167449707E-01
          0                 4           1             4    7     1      -0.6316845584E-05       4    7    1        -0.3600676182E-03      0.8857283982E-03

    ------------------------------------------------
       NWT REQUIRED            4 OUTER ITERATIONS 
       AND A TOTAL OF          7 INNER ITERATIONS.
    ------------------------------------------------

 NO OUTPUT CONTROL FOR STRESS PERIOD   37   TIME STEP    2
 
 SOLVING FOR HEAD 
                                                   Max.-Head-Change                         Max.-Flux-Residual
  Residual-Control   Outer-Iter.   Inner-Iter.     Column Row Layer    Maximum-Head-Change  Column Row Layer    Maximum-Flux-Residual          L2-NORM 
          0                 1           2             4    7     1       0.2379196317E-01       4    7    1         0.1248417225E+01      0.3073463868E+01
          0                 2           2             4    7     1      -0.2313065866E-02       4    7    1        -0.1247746296E+00      0.3072345971E+00
          0                 3           2             4    7     1       0.1573924567E-03       4    7    1         0.8727625461E-02      0.2149557605E-01
          0                 4           1             4    7     1      -0.6254939286E-05       4    7    1        -0.3565116308E-03      0.8784450059E-03

    ------------------------------------------------
       NWT REQUIRED            4 OUTER ITERATIONS 
       AND A TOTAL OF          7 INNER ITERATIONS.
    ------------------------------------------------

 NO OUTPUT CONTROL FOR STRESS PERIOD   37   TIME STEP    3
 
 SOLVING FOR HEAD 
                                                   Max.-Head-Change                         Max.-Flux-Residual
  Residual-Control   Outer-Iter.   Inner-Iter.     Column Row Layer    Maximum-Head-Change  Column Row Layer    Maximum-Flux-Residual          L2-NORM 
          0                 1           2             4    7     1       0.2356059492E-01       4    7    1         0.1236186595E+01      0.3048238781E+01
          0                 2           2             4    7     1      -0.2290571936E-02       4    7    1        -0.1235522096E+00      0.3047131112E+00
          0                 3           2             4    7     1       0.1558618538E-03       4    7    1         0.8642120324E-02      0.2131920542E-01
          0                 4           1             4    7     1      -0.6194111158E-05       4    7    1        -0.3530188312E-03      0.8712248384E-03

    ------------------------------------------------
       NWT REQUIRED            4 OUTER ITERATIONS 
       AND A TOTAL OF          7 INNER ITERATIONS.
    ------------------------------------------------

 NO OUTPUT CONTROL FOR STRESS PERIOD   37   TIME STEP    4
 
 SOLVING FOR HEAD 
                                                   Max.-Head-Change                         Max.-Flux-Residual
  Residual-Control   Outer-Iter.   Inner-Iter.     Column Row Layer    Maximum-Head-Change  Column Row Layer    Maximum-Flux-Residual          L2-NORM 
          0                 1           2             4    7     1       0.2333304605E-01       4    7    1         0.1224161269E+01      0.3023376386E+01
          0                 2           2             4    7     1      -0.2268449338E-02       4    7    1        -0.1223503098E+00      0.3022278496E+00
          0                 3           2             4    7     1       0.1543565190E-03       4    7    1         0.8558050545E-02      0.2114533425E-01
          0                 4           1             4    7     1      -0.6134287403E-05       4    7    1        -0.3495846715E-03      0.8641216818E-03

    ------------------------------------------------
       NWT REQUIRED            4 OUTER ITERATIONS 
       AND A TOTAL OF          7 INNER ITERATIONS.
    ------------------------------------------------

 NO OUTPUT CONTROL FOR STRESS PERIOD   37   TIME STEP    5
 
 SOLVING FOR HEAD 
                                                   Max.-Head-Change                         Max.-Flux-Residual
  Residual-Control   Outer-Iter.   Inner-Iter.     Column Row Layer    Maximum-Head-Change  Column Row Layer    Maximum-Flux-Residual          L2-NORM 
          0                 1           2             4    7     1       0.2310917793E-01       4    7    1         0.1212333971E+01      0.2998866905E+01
          0                 2           2             4    7     1      -0.2246684592E-02       4    7    1        -0.1211682026E+00      0.2997778744E+00
          0                 3           2             4    7     1       0.1528755336E-03       4    7    1         0.8475365203E-02      0.2097392832E-01
          0                 4           1             4    7     1      -0.6075430950E-05       4    7    1        -0.3462070426E-03      0.8571240503E-03

    ------------------------------------------------
       NWT REQUIRED            4 OUTER ITERATIONS 
       AND A TOTAL OF          7 INNER ITERATIONS.
    ------------------------------------------------

 NO OUTPUT CONTROL FOR STRESS PERIOD   37   TIME STEP    6
 
 SOLVING FOR HEAD 
                                                   Max.-Head-Change                         Max.-Flux-Residual
  Residual-Control   Outer-Iter.   Inner-Iter.     Column Row Layer    Maximum-Head-Change  Column Row Layer    Maximum-Flux-Residual          L2-NORM 
          0                 1           2             4    7     1       0.2288899495E-01       4    7    1         0.1200704813E+01      0.2974694017E+01
          0                 2           2             4    7     1      -0.2225278129E-02       4    7    1        -0.1200058995E+00      0.2973615302E+00
          0                 3           2             4    7     1       0.1514189285E-03       4    7    1         0.8394065142E-02      0.2080488231E-01
          0                 4           1             4    7     1      -0.6017543641E-05       4    7    1        -0.3428860200E-03      0.8502176609E-03

    ------------------------------------------------
       NWT REQUIRED            4 OUTER ITERATIONS 
       AND A TOTAL OF          7 INNER ITERATIONS.
    ------------------------------------------------

 NO OUTPUT CONTROL FOR STRESS PERIOD   37   TIME STEP    7
 
 SOLVING FOR HEAD 
                                                   Max.-Head-Change                         Max.-Flux-Residual
  Residual-Control   Outer-Iter.   Inner-Iter.     Column Row Layer    Maximum-Head-Change  Column Row Layer    Maximum-Flux-Residual          L2-NORM 
          0                 1           2             4    7     1       0.2267237014E-01       4    7    1         0.1189266722E+01      0.2950860418E+01
          0                 2           2             4    7     1      -0.2204217600E-02       4    7    1        -0.1188626935E+00      0.2949791024E+00
          0                 3           2             4    7     1       0.1499858625E-03       4    7    1         0.8314100867E-02      0.2063819525E-01
          0                 4           1             4    7     1      -0.5960592205E-05       4    7    1        -0.3396195768E-03      0.8434016079E-03

    ------------------------------------------------
       NWT REQUIRED            4 OUTER ITERATIONS 
       AND A TOTAL OF          7 INNER ITERATIONS.
    ------------------------------------------------

 NO OUTPUT CONTROL FOR STRESS PERIOD   37   TIME STEP    8
 
 SOLVING FOR HEAD 
                                                   Max.-Head-Change                         Max.-Flux-Residual
  Residual-Control   Outer-Iter.   Inner-Iter.     Column Row Layer    Maximum-Head-Change  Column Row Layer    Maximum-Flux-Residual          L2-NORM 
          0                 1           2             4    7     1       0.2245918518E-01       4    7    1         0.1178013117E+01      0.2927369837E+01
          0                 2           2             4    7     1      -0.2183491504E-02       4    7    1        -0.1177379266E+00      0.2926300703E+00
          0                 3           2             4    7     1       0.1485755531E-03       4    7    1         0.8235426365E-02      0.2047386882E-01
          0                 4           1             4    7     1      -0.5904544635E-05       4    7    1        -0.3364058023E-03      0.8366844175E-03

    ------------------------------------------------
       NWT REQUIRED            4 OUTER ITERATIONS 
       AND A TOTAL OF          7 INNER ITERATIONS.
    ------------------------------------------------

 NO OUTPUT CONTROL FOR STRESS PERIOD   37   TIME STEP    9
 
 SOLVING FOR HEAD 
                                                   Max.-Head-Change                         Max.-Flux-Residual
  Residual-Control   Outer-Iter.   Inner-Iter.     Column Row Layer    Maximum-Head-Change  Column Row Layer    Maximum-Flux-Residual          L2-NORM 
          0                 1           2             4    7     1       0.2224932601E-01       4    7    1         0.1166937861E+01      0.2904209848E+01
          0                 2           2             4    7     1      -0.2163088750E-02       4    7    1        -0.1166309857E+00      0.2903132240E+00
          0                 3           2             4    7     1       0.1471872461E-03       4    7    1         0.8157998787E-02      0.2031175672E-01
          0                 4           1             4    7     1      -0.5849371690E-05       4    7    1        -0.3332429696E-03      0.8300649202E-03

    ------------------------------------------------
       NWT REQUIRED            4 OUTER ITERATIONS 
       AND A TOTAL OF          7 INNER ITERATIONS.
    ------------------------------------------------

 NO OUTPUT CONTROL FOR STRESS PERIOD   37   TIME STEP   10
 
 SOLVING FOR HEAD 
                                                   Max.-Head-Change                         Max.-Flux-Residual
  Residual-Control   Outer-Iter.   Inner-Iter.     Column Row Layer    Maximum-Head-Change  Column Row Layer    Maximum-Flux-Residual          L2-NORM 
          0                 1           2             4    7     1       0.2204255363E-01       4    7    1         0.1156027739E+01      0.2881339387E+01
          0                 2           2             4    7     1      -0.2142986102E-02       4    7    1        -0.1155405496E+00      0.2880274218E+00
          0                 3           2             4    7     1       0.1458193600E-03       4    7    1         0.8081725680E-02      0.2015184215E-01
          0                 4           1             4    7     1      -0.5795010164E-05       4    7    1        -0.3301272982E-03      0.8235350393E-03

    ------------------------------------------------
       NWT REQUIRED            4 OUTER ITERATIONS 
       AND A TOTAL OF          7 INNER ITERATIONS.
    ------------------------------------------------

 NO OUTPUT CONTROL FOR STRESS PERIOD   37   TIME STEP   11
 
 SOLVING FOR HEAD 
                                                   Max.-Head-Change                         Max.-Flux-Residual
  Residual-Control   Outer-Iter.   Inner-Iter.     Column Row Layer    Maximum-Head-Change  Column Row Layer    Maximum-Flux-Residual          L2-NORM 
          0                 1           2             4    7     1       0.2183890756E-01       4    7    1         0.1145284963E+01      0.2858780305E+01
          0                 2           2             4    7     1      -0.2123187401E-02       4    7    1        -0.1144668397E+00      0.2857727377E+00
          0                 3           2             4    7     1       0.1444721559E-03       4    7    1         0.8006622528E-02      0.1999410442E-01
          0                 4           1             4    7     1      -0.5741470764E-05       4    7    1        -0.3270594179E-03      0.8170818244E-03

    ------------------------------------------------
       NWT REQUIRED            4 OUTER ITERATIONS 
       AND A TOTAL OF          7 INNER ITERATIONS.
    ------------------------------------------------

 NO OUTPUT CONTROL FOR STRESS PERIOD   37   TIME STEP   12
 
 SOLVING FOR HEAD 
                                                   Max.-Head-Change                         Max.-Flux-Residual
  Residual-Control   Outer-Iter.   Inner-Iter.     Column Row Layer    Maximum-Head-Change  Column Row Layer    Maximum-Flux-Residual          L2-NORM 
          0                 1           2             4    7     1       0.2163842856E-01       4    7    1         0.1134711583E+01      0.2836532692E+01
          0                 2           2             4    7     1      -0.2103696809E-02       4    7    1        -0.1134100607E+00      0.2835674804E+00
          0                 3           2             4    7     1       0.1431459171E-03       4    7    1         0.7932703664E-02      0.1983982851E-01
          0                 4           1             4    7     1      -0.5688764312E-05       4    7    1        -0.3240399024E-03      0.8107790367E-03

    ------------------------------------------------
       NWT REQUIRED            4 OUTER ITERATIONS 
       AND A TOTAL OF          7 INNER ITERATIONS.
    ------------------------------------------------

 NO OUTPUT CONTROL FOR STRESS PERIOD   37   TIME STEP   13
 
 SOLVING FOR HEAD 
                                                   Max.-Head-Change                         Max.-Flux-Residual
  Residual-Control   Outer-Iter.   Inner-Iter.     Column Row Layer    Maximum-Head-Change  Column Row Layer    Maximum-Flux-Residual          L2-NORM 
          0                 1           2             4    7     1       0.2144074710E-01       4    7    1         0.1124287794E+01      0.2814557397E+01
          0                 2           2             4    7     1      -0.2084477807E-02       4    7    1        -0.1123682332E+00      0.2813527390E+00
          0                 3           2             4    7     1       0.1418381591E-03       4    7    1         0.7859830610E-02      0.1968488583E-01
          0                 4           1             4    7     1      -0.5636792605E-05       4    7    1        -0.3210631228E-03      0.8044458539E-03

    ------------------------------------------------
       NWT REQUIRED            4 OUTER ITERATIONS 
       AND A TOTAL OF          7 INNER ITERATIONS.
    ------------------------------------------------

 NO OUTPUT CONTROL FOR STRESS PERIOD   37   TIME STEP   14
 
 SOLVING FOR HEAD 
                                                   Max.-Head-Change                         Max.-Flux-Residual
  Residual-Control   Outer-Iter.   Inner-Iter.     Column Row Layer    Maximum-Head-Change  Column Row Layer    Maximum-Flux-Residual          L2-NORM 
          0                 1           2             4    7     1       0.2124591791E-01       4    7    1         0.1114016376E+01      0.2792832723E+01
          0                 2           2             4    7     1      -0.2065536306E-02       4    7    1        -0.1113416349E+00      0.2791813597E+00
          0                 3           2             4    7     1       0.1405492836E-03       4    7    1         0.7788022822E-02      0.1953298745E-01
          0                 4           1             4    7     1      -0.5585571069E-05       4    7    1        -0.3181298434E-03      0.7982353884E-03

    ------------------------------------------------
       NWT REQUIRED            4 OUTER ITERATIONS 
       AND A TOTAL OF          7 INNER ITERATIONS.
    ------------------------------------------------

 NO OUTPUT CONTROL FOR STRESS PERIOD   37   TIME STEP   15
 
 SOLVING FOR HEAD 
                                                   Max.-Head-Change                         Max.-Flux-Residual
  Residual-Control   Outer-Iter.   Inner-Iter.     Column Row Layer    Maximum-Head-Change  Column Row Layer    Maximum-Flux-Residual          L2-NORM 
          0                 1           2             4    7     1       0.2105399415E-01       4    7    1         0.1103900136E+01      0.2771394542E+01
          0                 2           2             4    7     1      -0.2046877278E-02       4    7    1        -0.1103305466E+00      0.2770385611E+00
          0                 3           2             4    7     1       0.1392796293E-03       4    7    1         0.7717299921E-02      0.1938305214E-01
          0                 4           1             4    7     1      -0.5535113175E-05       4    7    1        -0.3152408995E-03      0.7921097741E-03

    ------------------------------------------------
       NWT REQUIRED            4 OUTER ITERATIONS 
       AND A TOTAL OF          7 INNER ITERATIONS.
    ------------------------------------------------

 NO OUTPUT CONTROL FOR STRESS PERIOD   37   TIME STEP   16
 
 SOLVING FOR HEAD 
                                                   Max.-Head-Change                         Max.-Flux-Residual
  Residual-Control   Outer-Iter.   Inner-Iter.     Column Row Layer    Maximum-Head-Change  Column Row Layer    Maximum-Flux-Residual          L2-NORM 
          0                 1           2             4    7     1       0.2086462693E-01       4    7    1         0.1093919928E+01      0.2750247927E+01
          0                 2           2             4    7     1      -0.2028466803E-02       4    7    1        -0.1093330545E+00      0.2749249137E+00
          0                 3           2             4    7     1       0.1380268879E-03       4    7    1         0.7647528041E-02      0.1923520687E-01
          0                 4           1             4    7     1      -0.5485327971E-05       4    7    1        -0.3123907979E-03      0.7860753998E-03

    ------------------------------------------------
       NWT REQUIRED            4 OUTER ITERATIONS 
       AND A TOTAL OF          7 INNER ITERATIONS.
    ------------------------------------------------

 NO OUTPUT CONTROL FOR STRESS PERIOD   37   TIME STEP   17
 
 SOLVING FOR HEAD 
                                                   Max.-Head-Change                         Max.-Flux-Residual
  Residual-Control   Outer-Iter.   Inner-Iter.     Column Row Layer    Maximum-Head-Change  Column Row Layer    Maximum-Flux-Residual          L2-NORM 
          0                 1           2             4    7     1       0.2067801464E-01       4    7    1         0.1084086882E+01      0.2729371774E+01
          0                 2           2             4    7     1      -0.2010353799E-02       4    7    1        -0.1083502709E+00      0.2728795986E+00
          0                 3           2             4    7     1       0.1367943872E-03       4    7    1         0.7578784925E-02      0.1909212223E-01
          0                 4           1             4    7     1      -0.5436346933E-05       4    7    1        -0.3095827128E-03      0.7802215326E-03

    ------------------------------------------------
       NWT REQUIRED            4 OUTER ITERATIONS 
       AND A TOTAL OF          7 INNER ITERATIONS.
    ------------------------------------------------

 NO OUTPUT CONTROL FOR STRESS PERIOD   37   TIME STEP   18
 
 SOLVING FOR HEAD 
                                                   Max.-Head-Change                         Max.-Flux-Residual
  Residual-Control   Outer-Iter.   Inner-Iter.     Column Row Layer    Maximum-Head-Change  Column Row Layer    Maximum-Flux-Residual          L2-NORM 
          0                 1           2             4    7     1       0.2049381586E-01       4    7    1         0.1074387789E+01      0.2708743966E+01
          0                 2           2             4    7     1      -0.1992416211E-02       4    7    1        -0.1073808764E+00      0.2707765014E+00
          0                 3           2             4    7     1       0.1355738251E-03       4    7    1         0.7510978511E-02      0.1894498265E-01
          0                 4           1             4    7     1      -0.5387840452E-05       4    7    1        -0.3068129015E-03      0.7742178221E-03

    ------------------------------------------------
       NWT REQUIRED            4 OUTER ITERATIONS 
       AND A TOTAL OF          7 INNER ITERATIONS.
    ------------------------------------------------

 NO OUTPUT CONTROL FOR STRESS PERIOD   37   TIME STEP   19
 
 SOLVING FOR HEAD 
                                                   Max.-Head-Change                         Max.-Flux-Residual
  Residual-Control   Outer-Iter.   Inner-Iter.     Column Row Layer    Maximum-Head-Change  Column Row Layer    Maximum-Flux-Residual          L2-NORM 
          0                 1           2             4    7     1       0.2031206342E-01       4    7    1         0.1064816989E+01      0.2688329829E+01
          0                 2           2             4    7     1      -0.1974746067E-02       4    7    1        -0.1064243043E+00      0.2687360509E+00
          0                 3           2             4    7     1       0.1343714602E-03       4    7    1         0.7444068929E-02      0.1880224303E-01
          0                 4           1             4    7     1      -0.5340057202E-05       4    7    1        -0.3040797167E-03      0.7683828706E-03

    ------------------------------------------------
       NWT REQUIRED            4 OUTER ITERATIONS 
       AND A TOTAL OF          7 INNER ITERATIONS.
    ------------------------------------------------

 NO OUTPUT CONTROL FOR STRESS PERIOD   37   TIME STEP   20
 
 SOLVING FOR HEAD 
                                                   Max.-Head-Change                         Max.-Flux-Residual
  Residual-Control   Outer-Iter.   Inner-Iter.     Column Row Layer    Maximum-Head-Change  Column Row Layer    Maximum-Flux-Residual          L2-NORM 
          0                 1           2             4    7     1       0.2013280869E-01       4    7    1         0.1055378755E+01      0.2668185999E+01
          0                 2           2             4    7     1      -0.1957318756E-02       4    7    1        -0.1054809820E+00      0.2667225928E+00
          0                 3           2             4    7     1       0.1331856189E-03       4    7    1         0.7378086126E-02      0.1866140403E-01
          0                 4           1             4    7     1      -0.5292930755E-05       4    7    1        -0.3013844118E-03      0.7627269931E-03

    ------------------------------------------------
       NWT REQUIRED            4 OUTER ITERATIONS 
       AND A TOTAL OF          7 INNER ITERATIONS.
    ------------------------------------------------

 NO OUTPUT CONTROL FOR STRESS PERIOD   37   TIME STEP   21
 
 SOLVING FOR HEAD 
                                                   Max.-Head-Change                         Max.-Flux-Residual
  Residual-Control   Outer-Iter.   Inner-Iter.     Column Row Layer    Maximum-Head-Change  Column Row Layer    Maximum-Flux-Residual          L2-NORM 
          0                 1           2             4    7     1       0.1995585940E-01       4    7    1         0.1046062716E+01      0.2648303938E+01
          0                 2           2             4    7     1      -0.1940115583E-02       4    7    1        -0.1045498729E+00      0.2647352835E+00
          0                 3           2             4    7     1       0.1320150288E-03       4    7    1         0.7312957587E-02      0.1852234200E-01
          0                 4           1             4    7     1      -0.5246409994E-05       4    7    1        -0.2987239882E-03      0.7569353948E-03

    ------------------------------------------------
       NWT REQUIRED            4 OUTER ITERATIONS 
       AND A TOTAL OF          7 INNER ITERATIONS.
    ------------------------------------------------

 NO OUTPUT CONTROL FOR STRESS PERIOD   37   TIME STEP   22
 
 SOLVING FOR HEAD 
                                                   Max.-Head-Change                         Max.-Flux-Residual
  Residual-Control   Outer-Iter.   Inner-Iter.     Column Row Layer    Maximum-Head-Change  Column Row Layer    Maximum-Flux-Residual          L2-NORM 
          0                 1           2             4    7     1       0.1978116091E-01       4    7    1         0.1036866210E+01      0.2628676319E+01
          0                 2           2             4    7     1      -0.1923131238E-02       4    7    1        -0.1036307108E+00      0.2627734330E+00
          0                 3           2             4    7     1       0.1308593293E-03       4    7    1         0.7248664750E-02      0.1838511230E-01
          0                 4           1             4    7     1      -0.5200481334E-05       4    7    1        -0.2960977006E-03      0.7515301115E-03

    ------------------------------------------------
       NWT REQUIRED            4 OUTER ITERATIONS 
       AND A TOTAL OF          7 INNER ITERATIONS.
    ------------------------------------------------

 NO OUTPUT CONTROL FOR STRESS PERIOD   37   TIME STEP   23
 
 SOLVING FOR HEAD 
                                                   Max.-Head-Change                         Max.-Flux-Residual
  Residual-Control   Outer-Iter.   Inner-Iter.     Column Row Layer    Maximum-Head-Change  Column Row Layer    Maximum-Flux-Residual          L2-NORM 
          0                 1           2             4    7     1       0.1960880529E-01       4    7    1         0.1027793710E+01      0.2609305173E+01
          0                 2           2             4    7     1      -0.1906374670E-02       4    7    1        -0.1027239429E+00      0.2608371980E+00
          0                 3           2             4    7     1       0.1297191290E-03       4    7    1         0.7185238837E-02      0.1824966572E-01
          0                 4           1             4    7     1      -0.5155168492E-05       4    7    1        -0.2935068367E-03      0.7458633496E-03

    ------------------------------------------------
       NWT REQUIRED            4 OUTER ITERATIONS 
       AND A TOTAL OF          7 INNER ITERATIONS.
    ------------------------------------------------

 NO OUTPUT CONTROL FOR STRESS PERIOD   37   TIME STEP   24
 
 SOLVING FOR HEAD 
                                                   Max.-Head-Change                         Max.-Flux-Residual
  Residual-Control   Outer-Iter.   Inner-Iter.     Column Row Layer    Maximum-Head-Change  Column Row Layer    Maximum-Flux-Residual          L2-NORM 
          0                 1           2             4    7     1       0.1943860429E-01       4    7    1         0.1018835377E+01      0.2590183965E+01
          0                 2           2             4    7     1      -0.1889827578E-02       4    7    1        -0.1018285857E+00      0.2589259427E+00
          0                 3           2             4    7     1       0.1285931819E-03       4    7    1         0.7122611077E-02      0.1811595430E-01
          0                 4           1             4    7     1      -0.5110421733E-05       4    7    1        -0.2909485481E-03      0.7403491812E-03

    ------------------------------------------------
       NWT REQUIRED            4 OUTER ITERATIONS 
       AND A TOTAL OF          7 INNER ITERATIONS.
    ------------------------------------------------

 NO OUTPUT CONTROL FOR STRESS PERIOD   37   TIME STEP   25
 
 SOLVING FOR HEAD 
                                                   Max.-Head-Change                         Max.-Flux-Residual
  Residual-Control   Outer-Iter.   Inner-Iter.     Column Row Layer    Maximum-Head-Change  Column Row Layer    Maximum-Flux-Residual          L2-NORM 
          0                 1           2             4    7     1       0.1927051409E-01       4    7    1         0.1009988757E+01      0.2571301364E+01
          0                 2           2             4    7     1      -0.1873485702E-02       4    7    1        -0.1009443940E+00      0.2570385226E+00
          0                 3           2             4    7     1       0.1274811992E-03       4    7    1         0.7060764300E-02      0.1798391226E-01
          0                 4           1             4    7     1      -0.5066230579E-05       4    7    1        -0.2884221935E-03      0.7349454635E-03

    ------------------------------------------------
       NWT REQUIRED            4 OUTER ITERATIONS 
       AND A TOTAL OF          7 INNER ITERATIONS.
    ------------------------------------------------

 NO OUTPUT CONTROL FOR STRESS PERIOD   37   TIME STEP   26
 
 SOLVING FOR HEAD 
                                                   Max.-Head-Change                         Max.-Flux-Residual
  Residual-Control   Outer-Iter.   Inner-Iter.     Column Row Layer    Maximum-Head-Change  Column Row Layer    Maximum-Flux-Residual          L2-NORM 
          0                 1           2             4    7     1       0.1910462886E-01       4    7    1         0.1001258885E+01      0.2552662659E+01
          0                 2           2             4    7     1      -0.1857358196E-02       4    7    1        -0.1000718710E+00      0.2551754932E+00
          0                 3           2             4    7     1       0.1263838033E-03       4    7    1         0.6999733742E-02      0.1785357693E-01
          0                 4           1             4    7     1      -0.5022618978E-05       4    7    1        -0.2859291678E-03      0.7296404220E-03

    ------------------------------------------------
       NWT REQUIRED            4 OUTER ITERATIONS 
       AND A TOTAL OF          7 INNER ITERATIONS.
    ------------------------------------------------

 NO OUTPUT CONTROL FOR STRESS PERIOD   37   TIME STEP   27
 
 SOLVING FOR HEAD 
                                                   Max.-Head-Change                         Max.-Flux-Residual
  Residual-Control   Outer-Iter.   Inner-Iter.     Column Row Layer    Maximum-Head-Change  Column Row Layer    Maximum-Flux-Residual          L2-NORM 
          0                 1           2             4    7     1       0.1894090086E-01       4    7    1         0.9926433358E+00      0.2534256932E+01
          0                 2           2             4    7     1      -0.1841440421E-02       4    7    1        -0.9921077443E-01      0.2533357485E+00
          0                 3           2             4    7     1       0.1253006784E-03       4    7    1         0.6939502417E-02      0.1772487613E-01
          0                 4           1             4    7     1      -0.4979574380E-05       4    7    1        -0.2834687923E-03      0.7243600559E-03

    ------------------------------------------------
       NWT REQUIRED            4 OUTER ITERATIONS 
       AND A TOTAL OF          7 INNER ITERATIONS.
    ------------------------------------------------

 NO OUTPUT CONTROL FOR STRESS PERIOD   37   TIME STEP   28
 
 SOLVING FOR HEAD 
                                                   Max.-Head-Change                         Max.-Flux-Residual
  Residual-Control   Outer-Iter.   Inner-Iter.     Column Row Layer    Maximum-Head-Change  Column Row Layer    Maximum-Flux-Residual          L2-NORM 
          0                 1           2             4    7     1       0.1877914873E-01       4    7    1         0.9841323281E+00      0.2516087161E+01
          0                 2           2             4    7     1      -0.1825714742E-02       4    7    1        -0.9836012647E-01      0.2515195900E+00
          0                 3           2             4    7     1       0.1242306248E-03       4    7    1         0.6880001956E-02      0.1759782600E-01
          0                 4           1             4    7     1      -0.4937049237E-05       4    7    1        -0.2810382691E-03      0.7191651534E-03

    ------------------------------------------------
       NWT REQUIRED            4 OUTER ITERATIONS 
       AND A TOTAL OF          7 INNER ITERATIONS.
    ------------------------------------------------

 NO OUTPUT CONTROL FOR STRESS PERIOD   37   TIME STEP   29
 
 SOLVING FOR HEAD 
                                                   Max.-Head-Change                         Max.-Flux-Residual
  Residual-Control   Outer-Iter.   Inner-Iter.     Column Row Layer    Maximum-Head-Change  Column Row Layer    Maximum-Flux-Residual          L2-NORM 
          0                 1           2             4    7     1       0.1861947030E-01       4    7    1         0.9757310731E+00      0.2498140794E+01
          0                 2           2             4    7     1      -0.1811807088E-02       4    7    1        -0.9763093651E-01      0.2497547029E+00
          0                 3           2             4    7     1       0.1232843285E-03       4    7    1         0.6828998096E-02      0.1747435091E-01
          0                 4           1             4    7     1      -0.4899445915E-05       4    7    1        -0.2789549158E-03      0.7141327019E-03

    ------------------------------------------------
       NWT REQUIRED            4 OUTER ITERATIONS 
       AND A TOTAL OF          7 INNER ITERATIONS.
    ------------------------------------------------

 NO OUTPUT CONTROL FOR STRESS PERIOD   37   TIME STEP   30



 STREAM LISTING     PERIOD     37   STEP       30

 LAYER ROW COL. STREAM  RCH.  FLOW INTO     FLOW TO   FLOW OUT OF   OVRLND.     DIRECT     STREAM       STREAM     STREAM     STREAM   STREAMBED  STREAMBED
                SEG.NO.  NO.  STRM. RCH.    AQUIFER    STRM. RCH.    RUNOFF     PRECIP       ET          HEAD       DEPTH      WIDTH   CONDCTNC.   GRADIENT

   1    1    1     1     1    1.9000E+01  2.1427E-01   1.8786E+01  0.000E+00  0.000E+00  0.000E+00  1.09413E+03  1.082E+00  1.166E+01  5.249E-02  1.361E+00
   1    2    2     1     2    1.8786E+01  3.3054E-01   1.8455E+01  0.000E+00  0.000E+00  0.000E+00  1.08914E+03  1.077E+00  1.158E+01  8.107E-02  1.359E+00
   1    3    3     1     3    1.8455E+01  2.8064E-01   1.8175E+01  0.000E+00  0.000E+00  0.000E+00  1.08349E+03  1.072E+00  1.149E+01  6.892E-02  1.357E+00
   1    3    4     1     4    1.8175E+01  2.5740E-01   1.7917E+01  0.000E+00  0.000E+00  0.000E+00  1.07848E+03  1.068E+00  1.140E+01  6.328E-02  1.356E+00
   1    4    5     2     1    1.5917E+01  3.0542E-01   1.5612E+01  0.000E+00  0.000E+00  0.000E+00  1.07285E+03  9.157E-01  1.200E+01  7.800E-02  1.305E+00
   1    5    6     2     2    1.5612E+01  2.3438E-01   1.5377E+01  0.000E+00  0.000E+00  0.000E+00  1.06742E+03  9.063E-01  1.200E+01  6.000E-02  1.302E+00
   1    6    6     2     3    1.5377E+01  2.3388E-01   1.5143E+01  0.000E+00  0.000E+00  0.000E+00  1.06269E+03  8.980E-01  1.200E+01  6.000E-02  1.299E+00
   1    7    6     2     4    1.5143E+01  2.3338E-01   1.4910E+01  0.000E+00  0.000E+00  0.000E+00  1.05797E+03  8.897E-01  1.200E+01  6.000E-02  1.297E+00
   1    8    6     2     5    1.4910E+01  2.3289E-01   1.4677E+01  0.000E+00  0.000E+00  0.000E+00  1.05324E+03  8.814E-01  1.200E+01  6.000E-02  1.294E+00
   1    3    5     3     1    2.0000E+00  2.8252E-01   1.7175E+00  0.000E+00  0.000E+00  0.000E+00  1.07555E+03  1.909E+00  9.636E+00  7.227E-02  1.955E+00
   1    3    6     3     2    1.7175E+00  2.4905E-01   1.4684E+00  0.000E+00  0.000E+00  0.000E+00  1.07264E+03  1.727E+00  8.909E+00  6.682E-02  1.864E+00
   1    3    7     3     3    1.4684E+00  1.9718E-01   1.2712E+00  0.000E+00  0.000E+00  0.000E+00  1.06987E+03  1.555E+00  8.218E+00  5.547E-02  1.777E+00
   1    4    8     3     4    1.2712E+00  2.2567E-01   1.0456E+00  0.000E+00  0.000E+00  0.000E+00  1.06682E+03  1.364E+00  7.455E+00  6.709E-02  1.682E+00
   1    5    8     3     5    1.0456E+00  1.5790E-01   8.8768E-01  0.000E+00  0.000E+00  0.000E+00  1.06362E+03  1.164E+00  6.655E+00  4.991E-02  1.582E+00
   1    6    8     3     6    8.8768E-01  5.5980E-02   8.3170E-01  0.000E+00  0.000E+00  0.000E+00  1.06158E+03  1.036E+00  6.145E+00  1.844E-02  1.518E+00
   1    5   10     4     1    1.0000E+01  9.0919E-02   9.9091E+00  0.000E+00  0.000E+00  0.000E+00  1.07836E+03  6.368E-01  1.000E+01  2.500E-02  1.212E+00
   1    5    9     4     2    9.9091E+00  1.8158E-01   9.7275E+00  0.000E+00  0.000E+00  0.000E+00  1.07154E+03  6.315E-01  1.000E+01  5.000E-02  1.211E+00
   1    6    8     4     3    9.7275E+00  1.2689E-01   9.6006E+00  0.000E+00  0.000E+00  0.000E+00  1.06381E+03  6.256E-01  1.000E+01  3.500E-02  1.209E+00
   1    6    8     5     1    1.0432E+01  2.2686E-01   1.0205E+01  0.000E+00  0.000E+00  0.000E+00  1.05868E+03  6.790E-01  1.542E+01  6.166E-02  1.226E+00
   1    7    7     5     2    1.0205E+01  2.7894E-01   9.9265E+00  0.000E+00  0.000E+00  0.000E+00  1.05417E+03  6.732E-01  1.519E+01  7.594E-02  1.224E+00
   1    8    7     5     3    9.9265E+00  1.9221E-01   9.7343E+00  0.000E+00  0.000E+00  0.000E+00  1.04992E+03  6.676E-01  1.497E+01  5.241E-02  1.223E+00
   1    8    6     5     4    9.7343E+00  1.3577E-01   9.5985E+00  0.000E+00  0.000E+00  0.000E+00  1.04691E+03  6.637E-01  1.482E+01  3.706E-02  1.221E+00
   1    9    6     6     1    2.4276E+01  2.5176E-01   2.4024E+01  0.000E+00  0.000E+00  0.000E+00  1.04392E+03  1.196E+00  1.200E+01  6.000E-02  1.399E+00
   1   10    7     6     2    2.4024E+01  2.5131E-01   2.3773E+01  0.000E+00  0.000E+00  0.000E+00  1.03937E+03  1.188E+00  1.200E+01  6.000E-02  1.396E+00
   1   11    7     6     3    2.3773E+01  2.5086E-01   2.3522E+01  0.000E+00  0.000E+00  0.000E+00  1.03482E+03  1.181E+00  1.200E+01  6.000E-02  1.394E+00
   1   12    7     6     4    2.3522E+01  2.5041E-01   2.3271E+01  0.000E+00  0.000E+00  0.000E+00  1.03026E+03  1.173E+00  1.200E+01  6.000E-02  1.391E+00
   1   13    7     6     5    2.3271E+01  8.4656E-03   2.3263E+01  0.000E+00  0.000E+00  0.000E+00  1.02708E+03  1.170E+00  1.200E+01  2.400E-02  1.176E-01
   1   14    9     7     1    1.5000E+02  1.3597E+00   1.4864E+02  0.000E+00  0.000E+00  0.000E+00  1.03987E+03  2.288E+00  5.529E+01  5.593E-01  8.103E-01
   1   13    8     7     2    1.4864E+02  1.9346E+00   1.4671E+02  0.000E+00  0.000E+00  0.000E+00  1.03478E+03  2.279E+00  5.526E+01  6.148E-01  1.049E+00
   1   13    7     7     3    1.4671E+02  1.6544E+00   1.4505E+02  0.000E+00  0.000E+00  0.000E+00  1.02969E+03  2.269E+00  5.521E+01  5.584E-01  9.876E-01
   1   13    6     8     1    1.6831E+02  1.0970E+00   1.6722E+02  0.000E+00  0.000E+00  0.000E+00  1.02481E+03  2.938E+00  4.260E+01  4.341E-01  8.425E-01
   1   13    5     8     2    1.6722E+02  3.4420E-01   1.6687E+02  0.000E+00  0.000E+00  0.000E+00  1.01856E+03  2.933E+00  4.253E+01  4.334E-01  2.648E-01
   1   13    4     8     3    1.6687E+02 -1.8569E+00   1.6873E+02  0.000E+00  0.000E+00  0.000E+00  1.01231E+03  2.938E+00  4.260E+01  4.341E+00 -1.426E-01
   1   13    3     8     4    1.6873E+02 -3.3767E+00   1.7211E+02  0.000E+00  0.000E+00  0.000E+00  1.00608E+03  2.955E+00  4.285E+01  4.366E+00 -2.578E-01
   1   13    2     8     5    1.7211E+02 -2.5177E+00   1.7462E+02  0.000E+00  0.000E+00  0.000E+00  9.99849E+02  2.974E+00  4.312E+01  4.394E+00 -1.910E-01
   1   13    1     8     6    1.7462E+02 -1.9670E+00   1.7659E+02  0.000E+00  0.000E+00  0.000E+00  9.94863E+02  2.988E+00  4.333E+01  2.649E+00 -2.475E-01





UNSATURATED ZONE PACKAGE VOLUMETRIC BUDGET FOR  TIME STEP    30 STRESS PERIOD   37
  ------------------------------------------------------------------------------



     CUMULATIVE VOLUMES      L**3       RATES FOR THIS TIME STEP      L**3/T
     ------------------                 ------------------------

           IN:                                      IN:
           ---                                      ---
        INFILTRATION =  1828359150.5261          INFILTRATION =           4.4075

          OUT:                                     OUT:
          ----                                     ----
              UZF ET =  1500832181.9808                UZF ET =           0.7250
        UZF RECHARGE =   221746218.2984          UZF RECHARGE =           0.0045

            IN - OUT =   105780750.2469              IN - OUT =           3.6780

          STORAGE:                                 STORAGE:
          --------                                 --------
      STORAGE CHANGE =   105782254.5751        STORAGE CHANGE =           3.6780

 PERCENT DISCREPANCY IS DIFFERENCE BETWEEN IN-OUT MINUS CHANGE IN STORAGE
 DIVIDED BY THE AVERAGE OF IN AND OUT TIMES 100

 PERCENT DISCREPANCY =          -0.00     PERCENT DISCREPANCY =           0.00






1
  VOLUMETRIC BUDGET FOR AGRICULTURAL FIELDS AT TIME STEP   30, STRESS PERIOD  37
  ------------------------------------------------------------------------------

     CUMULATIVE VOLUMES      L**3       RATES FOR THIS TIME STEP      L**3/T
     ------------------                 ------------------------

           IN:                                      IN:
           ---                                      ---
               AG WELLS  =  1410983296.0000                 AG WELLS  =           0.0000
      DIVERSION SEGMENTS =           0.0000        DIVERSION SEGMENTS =           0.0000
           GW IRRIGATION =           0.0000             GW IRRIGATION =           0.0000
           SW IRRIGATION =           0.0000             SW IRRIGATION =           0.0000
        SYSTEM LOSSES GW =           0.0000          SYSTEM LOSSES GW =           0.0000
        SYSTEM LOSSES SW =           0.0000          SYSTEM LOSSES SW =           0.0000

                TOTAL IN =  1410983296.0000                  TOTAL IN =           0.0000

          OUT:                                     OUT:
          ----                                     ----
               AG WELLS  =           0.0000                 AG WELLS  =           0.0000
      DIVERSION SEGMENTS =           0.0000        DIVERSION SEGMENTS =           0.0000
           GW IRRIGATION =  1410983296.0000             GW IRRIGATION =           0.0000
           SW IRRIGATION =           0.0000             SW IRRIGATION =           0.0000
        SYSTEM LOSSES GW =           0.0000          SYSTEM LOSSES GW =           0.0000
        SYSTEM LOSSES SW =           0.0000          SYSTEM LOSSES SW =           0.0000

               TOTAL OUT =  1410983296.0000                 TOTAL OUT =           0.0000

                IN - OUT =           0.0000                  IN - OUT =           0.0000

     PERCENT DISCREPANCY =           0.00         PERCENT DISCREPANCY =           0.00



1
  VOLUMETRIC BUDGET FOR ENTIRE MODEL AT END OF TIME STEP   30, STRESS PERIOD  37
  ------------------------------------------------------------------------------

     CUMULATIVE VOLUMES      L**3       RATES FOR THIS TIME STEP      L**3/T
     ------------------                 ------------------------

           IN:                                      IN:
           ---                                      ---
             STORAGE     =  1821297536.0000               STORAGE     =           6.7131
       CONSTANT HEAD     =           0.0000         CONSTANT HEAD     =           0.0000
     HEAD DEP BOUNDS     =    27089256.0000       HEAD DEP BOUNDS     =           0.2874
      STREAM LEAKAGE     =  1161047040.0000        STREAM LEAKAGE     =          12.1270
        UZF RECHARGE     =   221746208.0000          UZF RECHARGE     =       4.5486E-03
               GW ET     =           0.0000                 GW ET     =           0.0000
     SURFACE LEAKAGE     =           0.0000       SURFACE LEAKAGE     =           0.0000
           AG WELLS      =           0.0000             AG WELLS      =           0.0000

                TOTAL IN =  3231180032.0000                  TOTAL IN =          19.1320

          OUT:                                     OUT:
          ----                                     ----
             STORAGE     =   802353728.0000               STORAGE     =           9.1247
       CONSTANT HEAD     =           0.0000         CONSTANT HEAD     =           0.0000
     HEAD DEP BOUNDS     =    27713432.0000       HEAD DEP BOUNDS     =           0.2890
      STREAM LEAKAGE     =   972827776.0000        STREAM LEAKAGE     =           9.7183
        UZF RECHARGE     =           0.0000          UZF RECHARGE     =           0.0000
               GW ET     =    17288296.0000                 GW ET     =           0.0000
     SURFACE LEAKAGE     =           0.0000       SURFACE LEAKAGE     =           0.0000
           AG WELLS      =  1410983296.0000             AG WELLS      =           0.0000

               TOTAL OUT =  3231166464.0000                 TOTAL OUT =          19.1320

                IN - OUT =       13568.0000                  IN - OUT =       1.3351E-05

     PERCENT DISCREPANCY =           0.00         PERCENT DISCREPANCY =           0.00






         TIME SUMMARY AT END OF TIME STEP   30 IN STRESS PERIOD   37
                    SECONDS     MINUTES      HOURS       DAYS        YEARS
                    -----------------------------------------------------------
   TIME STEP LENGTH  87667.      1461.1      24.352      1.0147     2.77799E-03
 STRESS PERIOD TIME 2.63000E+06  43833.      730.56      30.440     8.33397E-02
         TOTAL TIME 9.47660E+07 1.57943E+06  26324.      1096.8      3.0030    
1
1
                            STRESS PERIOD NO.   38, LENGTH =   2630000.    
                            -----------------------------------------------

                              NUMBER OF TIME STEPS =    30

                               MULTIPLIER FOR DELT =     1.000

                            INITIAL TIME STEP SIZE =   87666.66    

 REUSING NON-PARAMETER GHB CELLS FROM LAST STRESS PERIOD

      2 GHB CELLS

 REUSING STREAM SEGMENT DATA FROM LAST STRESS PERIOD



            AREAL INFILTRATION RATE
 READING ON UNIT   19 WITH FORMAT: (10F4.0)            

            1           2           3           4           5           6           7           8           9          10
 ........................................................................................................................
   1   1.2000E-09   0.000       0.000       0.000       0.000       0.000       0.000       0.000       0.000       0.000    
   2   2.1000E-09  2.0000E-09  8.0000E-10  8.5000E-09   0.000       0.000       0.000       0.000       0.000       0.000    
   3   5.0000E-10  1.1000E-09  8.8000E-09  5.5000E-09   0.000       0.000       0.000       0.000       0.000       0.000    
   4   8.5000E-09  1.1000E-09  1.1000E-09  1.1000E-09  2.0000E-09   0.000       0.000       0.000       0.000       0.000    
   5   8.5000E-09  1.1000E-09  1.1000E-09  1.1000E-09  1.1000E-09   0.000       0.000       0.000       0.000       0.000    
   6   8.5000E-09  5.2000E-09  2.1000E-09  1.1000E-09  1.5000E-09   0.000       0.000       0.000       0.000       0.000    
   7   8.5000E-09  5.2000E-09  2.1000E-09  1.2000E-09  2.0000E-09   0.000       0.000       0.000       0.000       0.000    
   8   5.0000E-10  5.2000E-09  2.1000E-09  1.2000E-09  5.0000E-09   0.000       0.000       0.000       0.000       0.000    
   9   5.0000E-10  5.2000E-09  2.1000E-09  1.2000E-09  5.0000E-09   0.000       0.000       0.000       0.000       0.000    
  10   5.0000E-10  5.2000E-09  2.1000E-09  1.2000E-09  5.8000E-09   0.000       0.000       0.000       0.000       0.000    
  11   1.0000E-10  1.1000E-09  1.1000E-09  1.2000E-09  5.0000E-09   0.000       0.000       0.000       0.000       0.000    
  12   1.1000E-09  1.1000E-09  1.1000E-09  1.1000E-09  2.0000E-09   0.000       0.000       0.000       0.000       0.000    
  13   1.1000E-09  2.2000E-09  2.2000E-09  2.1000E-09  1.0000E-09   0.000       0.000       0.000       0.000       0.000    
  14   2.0000E-10  5.5000E-09  5.5000E-09  5.2000E-09  1.0000E-09   0.000       0.000       0.000       0.000       0.000    
  15    0.000      8.8000E-09  8.8000E-09   0.000       0.000       0.000       0.000       0.000       0.000       0.000    

                  ET RATE =  5.000000E-10

 USING ET EXTINCTION DEPTH FROM PREVIOUS STRESS PERIOD. CURRENT PERIOD IS:      38

 USING EXTINCTION WATER CONTENT FROM PREVIOUS STRESS PERIOD. CURRENT PERIOD IS:      38

 USING AIR ENTRY PRESSURE FROM PREVIOUS STRESS PERIOD. CURRENT PERIOD IS:      38

 USING ROOT PRESSURE HEAD FROM PREVIOUS STRESS PERIOD. CURRENT PERIOD IS:      38

 USING ROOT ACTIVITY FROM PREVIOUS STRESS PERIOD. CURRENT PERIOD IS:      38

 PROCESSING AG STRESS PERIOD DATA

 READING AG STRESS PERIOD DATA

 READING IRRIGATION WELL

 END PROCESSING AG STRESS PERIOD DATA OPTIONS
 
 SOLVING FOR HEAD 
                                                   Max.-Head-Change                         Max.-Flux-Residual
  Residual-Control   Outer-Iter.   Inner-Iter.     Column Row Layer    Maximum-Head-Change  Column Row Layer    Maximum-Flux-Residual          L2-NORM 
          0                 1           2             4    7     1       0.1845675064E-01       4    7    1         0.9673438711E+00      0.2480397763E+01
          0                 2           2             4    7     1      -0.1794371807E-02       4    7    1        -0.9668220817E-01      0.2479522695E+00
          0                 3           2             4    7     1       0.1220979412E-03       4    7    1         0.6762636910E-02      0.1734827440E-01
          0                 4           1             4    7     1      -0.4852297364E-05       4    7    1        -0.2762441131E-03      0.7089752410E-03

    ------------------------------------------------
       NWT REQUIRED            4 OUTER ITERATIONS 
       AND A TOTAL OF          7 INNER ITERATIONS.
    ------------------------------------------------

 NO OUTPUT CONTROL FOR STRESS PERIOD   38   TIME STEP    1
 
 SOLVING FOR HEAD 
                                                   Max.-Head-Change                         Max.-Flux-Residual
  Residual-Control   Outer-Iter.   Inner-Iter.     Column Row Layer    Maximum-Head-Change  Column Row Layer    Maximum-Flux-Residual          L2-NORM 
          0                 1           2             4    7     1       0.1829794678E-01       4    7    1         0.9589785594E+00      0.2462847750E+01
          0                 2           2             4    7     1      -0.1778932739E-02       4    7    1        -0.9584612053E-01      0.2461980579E+00
          0                 3           2             4    7     1       0.1210473893E-03       4    7    1         0.6704154862E-02      0.1722554902E-01
          0                 4           1             4    7     1      -0.4810547145E-05       4    7    1        -0.2738551805E-03      0.7039797972E-03

    ------------------------------------------------
       NWT REQUIRED            4 OUTER ITERATIONS 
       AND A TOTAL OF          7 INNER ITERATIONS.
    ------------------------------------------------

 NO OUTPUT CONTROL FOR STRESS PERIOD   38   TIME STEP    2
 
 SOLVING FOR HEAD 
                                                   Max.-Head-Change                         Max.-Flux-Residual
  Residual-Control   Outer-Iter.   Inner-Iter.     Column Row Layer    Maximum-Head-Change  Column Row Layer    Maximum-Flux-Residual          L2-NORM 
          0                 1           2             4    7     1       0.1814134218E-01       4    7    1         0.9507301654E+00      0.2445516250E+01
          0                 2           2             4    7     1      -0.1763707486E-02       4    7    1        -0.9502171862E-01      0.2444656721E+00
          0                 3           2             4    7     1       0.1200113867E-03       4    7    1         0.6646490206E-02      0.1710434567E-01
          0                 4           1             4    7     1      -0.4769375098E-05       4    7    1        -0.2714996465E-03      0.6990158170E-03

    ------------------------------------------------
       NWT REQUIRED            4 OUTER ITERATIONS 
       AND A TOTAL OF          7 INNER ITERATIONS.
    ------------------------------------------------

 NO OUTPUT CONTROL FOR STRESS PERIOD   38   TIME STEP    3
 
 SOLVING FOR HEAD 
                                                   Max.-Head-Change                         Max.-Flux-Residual
  Residual-Control   Outer-Iter.   Inner-Iter.     Column Row Layer    Maximum-Head-Change  Column Row Layer    Maximum-Flux-Residual          L2-NORM 
          0                 1           2             4    7     1       0.1798674759E-01       4    7    1         0.9425884898E+00      0.2428400316E+01
          0                 2           2             4    7     1      -0.1748677652E-02       4    7    1        -0.9420798309E-01      0.2427548356E+00
          0                 3           2             4    7     1       0.1189886811E-03       4    7    1         0.6589571628E-02      0.1698465786E-01
          0                 4           1             4    7     1      -0.4728731601E-05       4    7    1        -0.2691745863E-03      0.6941186799E-03

    ------------------------------------------------
       NWT REQUIRED            4 OUTER ITERATIONS 
       AND A TOTAL OF          7 INNER ITERATIONS.
    ------------------------------------------------

 NO OUTPUT CONTROL FOR STRESS PERIOD   38   TIME STEP    4
 
 SOLVING FOR HEAD 
                                                   Max.-Head-Change                         Max.-Flux-Residual
  Residual-Control   Outer-Iter.   Inner-Iter.     Column Row Layer    Maximum-Head-Change  Column Row Layer    Maximum-Flux-Residual          L2-NORM 
          0                 1           2             4    7     1       0.1783425508E-01       4    7    1         0.9345583388E+00      0.2411498827E+01
          0                 2           2             4    7     1      -0.1733852186E-02       4    7    1        -0.9340539423E-01      0.2410654410E+00
          0                 3           2             4    7     1       0.1179798824E-03       4    7    1         0.6533432746E-02      0.1686647504E-01
          0                 4           1             4    7     1      -0.4688640947E-05       4    7    1        -0.2668813904E-03      0.6892933248E-03

    ------------------------------------------------
       NWT REQUIRED            4 OUTER ITERATIONS 
       AND A TOTAL OF          7 INNER ITERATIONS.
    ------------------------------------------------

 NO OUTPUT CONTROL FOR STRESS PERIOD   38   TIME STEP    5
 
 SOLVING FOR HEAD 
                                                   Max.-Head-Change                         Max.-Flux-Residual
  Residual-Control   Outer-Iter.   Inner-Iter.     Column Row Layer    Maximum-Head-Change  Column Row Layer    Maximum-Flux-Residual          L2-NORM 
          0                 1           2             4    7     1       0.1768367886E-01       4    7    1         0.9266298671E+00      0.2394808211E+01
          0                 2           2             4    7     1      -0.1719213024E-02       4    7    1        -0.9261296804E-01      0.2393971173E+00
          0                 3           2             4    7     1       0.1169837601E-03       4    7    1         0.6478004687E-02      0.1674974039E-01
          0                 4           1             4    7     1      -0.4649054091E-05       4    7    1        -0.2646172259E-03      0.6845292243E-03

    ------------------------------------------------
       NWT REQUIRED            4 OUTER ITERATIONS 
       AND A TOTAL OF          7 INNER ITERATIONS.
    ------------------------------------------------

 NO OUTPUT CONTROL FOR STRESS PERIOD   38   TIME STEP    6
 
 SOLVING FOR HEAD 
                                                   Max.-Head-Change                         Max.-Flux-Residual
  Residual-Control   Outer-Iter.   Inner-Iter.     Column Row Layer    Maximum-Head-Change  Column Row Layer    Maximum-Flux-Residual          L2-NORM 
          0                 1           2             4    7     1       0.1753524113E-01       4    7    1         0.9188153720E+00      0.2378310106E+01
          0                 2           2             4    7     1      -0.1704781773E-02       4    7    1        -0.9183193367E-01      0.2377480829E+00
          0                 3           1             4    7     1       0.1160017893E-03       4    7    1         0.6423373500E-02      0.1663436682E-01
          0                 4           1             4    7     1      -0.4610032857E-05       4    7    1        -0.2623856033E-03      0.6797701639E-03

    ------------------------------------------------
       NWT REQUIRED            4 OUTER ITERATIONS 
       AND A TOTAL OF          6 INNER ITERATIONS.
    ------------------------------------------------

 NO OUTPUT CONTROL FOR STRESS PERIOD   38   TIME STEP    7
 
 SOLVING FOR HEAD 
                                                   Max.-Head-Change                         Max.-Flux-Residual
  Residual-Control   Outer-Iter.   Inner-Iter.     Column Row Layer    Maximum-Head-Change  Column Row Layer    Maximum-Flux-Residual          L2-NORM 
          0                 1           2             4    7     1       0.1738862623E-01       4    7    1         0.9110971331E+00      0.2362021101E+01
          0                 2           2             4    7     1      -0.1690527740E-02       4    7    1        -0.9106051990E-01      0.2361199104E+00
          0                 3           1             4    7     1       0.1150318730E-03       4    7    1         0.6369415219E-02      0.1652049272E-01
          0                 4           1             4    7     1      -0.4571487101E-05       4    7    1        -0.2601814604E-03      0.6751503252E-03

    ------------------------------------------------
       NWT REQUIRED            4 OUTER ITERATIONS 
       AND A TOTAL OF          6 INNER ITERATIONS.
    ------------------------------------------------

 NO OUTPUT CONTROL FOR STRESS PERIOD   38   TIME STEP    8
 
 SOLVING FOR HEAD 
                                                   Max.-Head-Change                         Max.-Flux-Residual
  Residual-Control   Outer-Iter.   Inner-Iter.     Column Row Layer    Maximum-Head-Change  Column Row Layer    Maximum-Flux-Residual          L2-NORM 
          0                 1           2             4    7     1       0.1724392791E-01       4    7    1         0.9034807157E+00      0.2345929094E+01
          0                 2           2             4    7     1      -0.1676460041E-02       4    7    1        -0.9029928304E-01      0.2345114221E+00
          0                 3           1             4    7     1       0.1140746365E-03       4    7    1         0.6316168803E-02      0.1640798787E-01
          0                 4           1             4    7     1      -0.4533445603E-05       4    7    1        -0.2580064183E-03      0.6705684493E-03

    ------------------------------------------------
       NWT REQUIRED            4 OUTER ITERATIONS 
       AND A TOTAL OF          6 INNER ITERATIONS.
    ------------------------------------------------

 NO OUTPUT CONTROL FOR STRESS PERIOD   38   TIME STEP    9
 
 SOLVING FOR HEAD 
                                                   Max.-Head-Change                         Max.-Flux-Residual
  Residual-Control   Outer-Iter.   Inner-Iter.     Column Row Layer    Maximum-Head-Change  Column Row Layer    Maximum-Flux-Residual          L2-NORM 
          0                 1           2             4    7     1       0.1710110719E-01       4    7    1         0.8959636692E+00      0.2330033006E+01
          0                 2           2             4    7     1      -0.1662574885E-02       4    7    1        -0.8954797807E-01      0.2329225248E+00
          0                 3           1             4    7     1       0.1131298209E-03       4    7    1         0.6263617105E-02      0.1629682249E-01
          0                 4           1             4    7     1      -0.4495897197E-05       4    7    1        -0.2558597364E-03      0.6660066684E-03

    ------------------------------------------------
       NWT REQUIRED            4 OUTER ITERATIONS 
       AND A TOTAL OF          6 INNER ITERATIONS.
    ------------------------------------------------

 NO OUTPUT CONTROL FOR STRESS PERIOD   38   TIME STEP   10
 
 SOLVING FOR HEAD 
                                                   Max.-Head-Change                         Max.-Flux-Residual
  Residual-Control   Outer-Iter.   Inner-Iter.     Column Row Layer    Maximum-Head-Change  Column Row Layer    Maximum-Flux-Residual          L2-NORM 
          0                 1           2             4    7     1       0.1695998711E-01       4    7    1         0.8885366615E+00      0.2314324670E+01
          0                 2           2             4    7     1      -0.1648855068E-02       4    7    1        -0.8880567235E-01      0.2313524037E+00
          0                 3           1             4    7     1       0.1121962558E-03       4    7    1         0.6211694862E-02      0.1618699680E-01
          0                 4           1             4    7     1      -0.4458796291E-05       4    7    1        -0.2537387754E-03      0.6615336479E-03

    ------------------------------------------------
       NWT REQUIRED            4 OUTER ITERATIONS 
       AND A TOTAL OF          6 INNER ITERATIONS.
    ------------------------------------------------

 NO OUTPUT CONTROL FOR STRESS PERIOD   38   TIME STEP   11
 
 SOLVING FOR HEAD 
                                                   Max.-Head-Change                         Max.-Flux-Residual
  Residual-Control   Outer-Iter.   Inner-Iter.     Column Row Layer    Maximum-Head-Change  Column Row Layer    Maximum-Flux-Residual          L2-NORM 
          0                 1           2             4    7     1       0.1682080272E-01       4    7    1         0.8812124517E+00      0.2298810403E+01
          0                 2           2             4    7     1      -0.1635323444E-02       4    7    1        -0.8807364108E-01      0.2298016822E+00
          0                 3           1             4    7     1       0.1112754964E-03       4    7    1         0.6160491314E-02      0.1607851965E-01
          0                 4           1             4    7     1      -0.4422204250E-05       4    7    1        -0.2516471652E-03      0.6571040905E-03

    ------------------------------------------------
       NWT REQUIRED            4 OUTER ITERATIONS 
       AND A TOTAL OF          6 INNER ITERATIONS.
    ------------------------------------------------

 NO OUTPUT CONTROL FOR STRESS PERIOD   38   TIME STEP   12
 
 SOLVING FOR HEAD 
                                                   Max.-Head-Change                         Max.-Flux-Residual
  Residual-Control   Outer-Iter.   Inner-Iter.     Column Row Layer    Maximum-Head-Change  Column Row Layer    Maximum-Flux-Residual          L2-NORM 
          0                 1           2             4    7     1       0.1668337553E-01       4    7    1         0.8739812933E+00      0.2283481989E+01
          0                 2           2             4    7     1      -0.1621962656E-02       4    7    1        -0.8735091013E-01      0.2282695298E+00
          0                 3           1             4    7     1       0.1103663617E-03       4    7    1         0.6109938285E-02      0.1597131998E-01
          0                 4           1             4    7     1      -0.4386074215E-05       4    7    1        -0.2495821489E-03      0.6527070550E-03

    ------------------------------------------------
       NWT REQUIRED            4 OUTER ITERATIONS 
       AND A TOTAL OF          6 INNER ITERATIONS.
    ------------------------------------------------

 NO OUTPUT CONTROL FOR STRESS PERIOD   38   TIME STEP   13
 
 SOLVING FOR HEAD 
                                                   Max.-Head-Change                         Max.-Flux-Residual
  Residual-Control   Outer-Iter.   Inner-Iter.     Column Row Layer    Maximum-Head-Change  Column Row Layer    Maximum-Flux-Residual          L2-NORM 
          0                 1           2             4    7     1       0.1654753224E-01       4    7    1         0.8668339297E+00      0.2268326036E+01
          0                 2           2             4    7     1      -0.1608755859E-02       4    7    1        -0.8663655427E-01      0.2267546387E+00
          0                 3           1             4    7     1       0.1094677049E-03       4    7    1         0.6059971065E-02      0.1586532967E-01
          0                 4           1             4    7     1      -0.4350360713E-05       4    7    1        -0.2475410465E-03      0.6483837459E-03

    ------------------------------------------------
       NWT REQUIRED            4 OUTER ITERATIONS 
       AND A TOTAL OF          6 INNER ITERATIONS.
    ------------------------------------------------

 NO OUTPUT CONTROL FOR STRESS PERIOD   38   TIME STEP   14
 
 SOLVING FOR HEAD 
                                                   Max.-Head-Change                         Max.-Flux-Residual
  Residual-Control   Outer-Iter.   Inner-Iter.     Column Row Layer    Maximum-Head-Change  Column Row Layer    Maximum-Flux-Residual          L2-NORM 
          0                 1           2             4    7     1       0.1641351674E-01       4    7    1         0.8597833137E+00      0.2253358656E+01
          0                 2           2             4    7     1      -0.1595726762E-02       4    7    1        -0.8593186814E-01      0.2252585437E+00
          0                 3           1             4    7     1       0.1085811403E-03       4    7    1         0.6010680236E-02      0.1576067811E-01
          0                 4           1             4    7     1      -0.4315127523E-05       4    7    1        -0.2455275830E-03      0.6441660998E-03

    ------------------------------------------------
       NWT REQUIRED            4 OUTER ITERATIONS 
       AND A TOTAL OF          6 INNER ITERATIONS.
    ------------------------------------------------

 NO OUTPUT CONTROL FOR STRESS PERIOD   38   TIME STEP   15
 
 SOLVING FOR HEAD 
                                                   Max.-Head-Change                         Max.-Flux-Residual
  Residual-Control   Outer-Iter.   Inner-Iter.     Column Row Layer    Maximum-Head-Change  Column Row Layer    Maximum-Flux-Residual          L2-NORM 
          0                 1           2             4    7     1       0.1628101646E-01       4    7    1         0.8528128400E+00      0.2238564751E+01
          0                 2           2             4    7     1      -0.1582844978E-02       4    7    1        -0.8523519212E-01      0.2237798122E+00
          0                 3           1             4    7     1       0.1077045990E-03       4    7    1         0.5961949676E-02      0.1565724536E-01
          0                 4           1             4    7     1      -0.4280293134E-05       4    7    1        -0.2435369947E-03      0.6398938438E-03

    ------------------------------------------------
       NWT REQUIRED            4 OUTER ITERATIONS 
       AND A TOTAL OF          6 INNER ITERATIONS.
    ------------------------------------------------

 NO OUTPUT CONTROL FOR STRESS PERIOD   38   TIME STEP   16
 
 SOLVING FOR HEAD 
                                                   Max.-Head-Change                         Max.-Flux-Residual
  Residual-Control   Outer-Iter.   Inner-Iter.     Column Row Layer    Maximum-Head-Change  Column Row Layer    Maximum-Flux-Residual          L2-NORM 
          0                 1           2             4    7     1       0.1615027286E-01       4    7    1         0.8459355533E+00      0.2223940878E+01
          0                 2           2             4    7     1      -0.1570133981E-02       4    7    1        -0.8454782991E-01      0.2223180889E+00
          0                 3           1             4    7     1       0.1068396793E-03       4    7    1         0.5913870607E-02      0.1555497655E-01
          0                 4           1             4    7     1      -0.4245920062E-05       4    7    1        -0.2415730255E-03      0.6357051165E-03

    ------------------------------------------------
       NWT REQUIRED            4 OUTER ITERATIONS 
       AND A TOTAL OF          6 INNER ITERATIONS.
    ------------------------------------------------

 NO OUTPUT CONTROL FOR STRESS PERIOD   38   TIME STEP   17
 
 SOLVING FOR HEAD 
                                                   Max.-Head-Change                         Max.-Flux-Residual
  Residual-Control   Outer-Iter.   Inner-Iter.     Column Row Layer    Maximum-Head-Change  Column Row Layer    Maximum-Flux-Residual          L2-NORM 
          0                 1           2             4    7     1       0.1602098217E-01       4    7    1         0.8391347213E+00      0.2209491341E+01
          0                 2           2             4    7     1      -0.1557564238E-02       4    7    1        -0.8386810917E-01      0.2208737893E+00
          0                 3           1             4    7     1       0.1059843712E-03       4    7    1         0.5866326044E-02      0.1545394736E-01
          0                 4           1             4    7     1      -0.4211929099E-05       4    7    1        -0.2396308780E-03      0.6315693209E-03

    ------------------------------------------------
       NWT REQUIRED            4 OUTER ITERATIONS 
       AND A TOTAL OF          6 INNER ITERATIONS.
    ------------------------------------------------

 NO OUTPUT CONTROL FOR STRESS PERIOD   38   TIME STEP   18
 
 SOLVING FOR HEAD 
                                                   Max.-Head-Change                         Max.-Flux-Residual
  Residual-Control   Outer-Iter.   Inner-Iter.     Column Row Layer    Maximum-Head-Change  Column Row Layer    Maximum-Flux-Residual          L2-NORM 
          0                 1           2             4    7     1       0.1589338676E-01       4    7    1         0.8324238468E+00      0.2195212518E+01
          0                 2           2             4    7     1      -0.1545159313E-02       4    7    1        -0.8319737950E-01      0.2194465548E+00
          0                 3           1             4    7     1       0.1051402781E-03       4    7    1         0.5819410368E-02      0.1535410967E-01
          0                 4           1             4    7     1      -0.4178384140E-05       4    7    1        -0.2377144449E-03      0.6275040610E-03

    ------------------------------------------------
       NWT REQUIRED            4 OUTER ITERATIONS 
       AND A TOTAL OF          6 INNER ITERATIONS.
    ------------------------------------------------

 NO OUTPUT CONTROL FOR STRESS PERIOD   38   TIME STEP   19
 
 SOLVING FOR HEAD 
                                                   Max.-Head-Change                         Max.-Flux-Residual
  Residual-Control   Outer-Iter.   Inner-Iter.     Column Row Layer    Maximum-Head-Change  Column Row Layer    Maximum-Flux-Residual          L2-NORM 
          0                 1           2             4    7     1       0.1576731794E-01       4    7    1         0.8257935561E+00      0.2181100124E+01
          0                 2           2             4    7     1      -0.1532902805E-02       4    7    1        -0.8253470399E-01      0.2180359551E+00
          0                 3           1             4    7     1       0.1043062840E-03       4    7    1         0.5773058059E-02      0.1525543075E-01
          0                 4           1             4    7     1      -0.4145240055E-05       4    7    1        -0.2358210090E-03      0.6234735008E-03

    ------------------------------------------------
       NWT REQUIRED            4 OUTER ITERATIONS 
       AND A TOTAL OF          6 INNER ITERATIONS.
    ------------------------------------------------

 NO OUTPUT CONTROL FOR STRESS PERIOD   38   TIME STEP   20
 
 SOLVING FOR HEAD 
                                                   Max.-Head-Change                         Max.-Flux-Residual
  Residual-Control   Outer-Iter.   Inner-Iter.     Column Row Layer    Maximum-Head-Change  Column Row Layer    Maximum-Flux-Residual          L2-NORM 
          0                 1           2             4    7     1       0.1564261003E-01       4    7    1         0.8192351025E+00      0.2167143816E+01
          0                 2           2             4    7     1      -0.1520778608E-02       4    7    1        -0.8187920845E-01      0.2166409382E+00
          0                 3           1             4    7     1       0.1034812930E-03       4    7    1         0.5727207986E-02      0.1515781946E-01
          0                 4           1             4    7     1      -0.4112453786E-05       4    7    1        -0.2339480773E-03      0.6194800345E-03

    ------------------------------------------------
       NWT REQUIRED            4 OUTER ITERATIONS 
       AND A TOTAL OF          6 INNER ITERATIONS.
    ------------------------------------------------

 NO OUTPUT CONTROL FOR STRESS PERIOD   38   TIME STEP   21
 
 SOLVING FOR HEAD 
                                                   Max.-Head-Change                         Max.-Flux-Residual
  Residual-Control   Outer-Iter.   Inner-Iter.     Column Row Layer    Maximum-Head-Change  Column Row Layer    Maximum-Flux-Residual          L2-NORM 
          0                 1           2             4    7     1       0.1551951362E-01       4    7    1         0.8127618379E+00      0.2153353961E+01
          0                 2           2             4    7     1      -0.1508811083E-02       4    7    1        -0.8123222736E-01      0.2152623260E+00
          0                 3           1             4    7     1       0.1026669630E-03       4    7    1         0.5681953470E-02      0.1506141526E-01
          0                 4           1             4    7     1      -0.4080091648E-05       4    7    1        -0.2320994952E-03      0.6155392235E-03

    ------------------------------------------------
       NWT REQUIRED            4 OUTER ITERATIONS 
       AND A TOTAL OF          6 INNER ITERATIONS.
    ------------------------------------------------

 NO OUTPUT CONTROL FOR STRESS PERIOD   38   TIME STEP   22
 
 SOLVING FOR HEAD 
                                                   Max.-Head-Change                         Max.-Flux-Residual
  Residual-Control   Outer-Iter.   Inner-Iter.     Column Row Layer    Maximum-Head-Change  Column Row Layer    Maximum-Flux-Residual          L2-NORM 
          0                 1           2             4    7     1       0.1539799326E-01       4    7    1         0.8063721273E+00      0.2139963434E+01
          0                 2           2             4    7     1      -0.1496996783E-02       4    7    1        -0.8059359730E-01      0.2139001351E+00
          0                 3           1             4    7     1       0.1018630593E-03       4    7    1         0.5637283078E-02      0.1496611441E-01
          0                 4           1             4    7     1      -0.4048143739E-05       4    7    1        -0.2302747848E-03      0.6116484516E-03

    ------------------------------------------------
       NWT REQUIRED            4 OUTER ITERATIONS 
       AND A TOTAL OF          6 INNER ITERATIONS.
    ------------------------------------------------

 NO OUTPUT CONTROL FOR STRESS PERIOD   38   TIME STEP   23
 
 SOLVING FOR HEAD 
                                                   Max.-Head-Change                         Max.-Flux-Residual
  Residual-Control   Outer-Iter.   Inner-Iter.     Column Row Layer    Maximum-Head-Change  Column Row Layer    Maximum-Flux-Residual          L2-NORM 
          0                 1           2             4    7     1       0.1527774953E-01       4    7    1         0.8000495025E+00      0.2126411363E+01
          0                 2           2             4    7     1      -0.1485306599E-02       4    7    1        -0.7996167230E-01      0.2125516758E+00
          0                 3           1             4    7     1       0.1010676004E-03       4    7    1         0.5593081684E-02      0.1487177351E-01
          0                 4           1             4    7     1      -0.4016531197E-05       4    7    1        -0.2284692052E-03      0.6077826227E-03

    ------------------------------------------------
       NWT REQUIRED            4 OUTER ITERATIONS 
       AND A TOTAL OF          6 INNER ITERATIONS.
    ------------------------------------------------

 NO OUTPUT CONTROL FOR STRESS PERIOD   38   TIME STEP   24
 
 SOLVING FOR HEAD 
                                                   Max.-Head-Change                         Max.-Flux-Residual
  Residual-Control   Outer-Iter.   Inner-Iter.     Column Row Layer    Maximum-Head-Change  Column Row Layer    Maximum-Flux-Residual          L2-NORM 
          0                 1           2             4    7     1       0.1515902775E-01       4    7    1         0.7938076983E+00      0.2113025619E+01
          0                 2           2             4    7     1      -0.1473764383E-02       4    7    1        -0.7933782515E-01      0.2112184521E+00
          0                 3           1             4    7     1       0.1002822105E-03       4    7    1         0.5549445330E-02      0.1477850567E-01
          0                 4           1             4    7     1      -0.3985319068E-05       4    7    1        -0.2266867134E-03      0.6039806399E-03

    ------------------------------------------------
       NWT REQUIRED            4 OUTER ITERATIONS 
       AND A TOTAL OF          6 INNER ITERATIONS.
    ------------------------------------------------

 NO OUTPUT CONTROL FOR STRESS PERIOD   38   TIME STEP   25
 
 SOLVING FOR HEAD 
                                                   Max.-Head-Change                         Max.-Flux-Residual
  Residual-Control   Outer-Iter.   Inner-Iter.     Column Row Layer    Maximum-Head-Change  Column Row Layer    Maximum-Flux-Residual          L2-NORM 
          0                 1           2             4    7     1       0.1504153412E-01       4    7    1         0.7876301750E+00      0.2099806171E+01
          0                 2           2             4    7     1      -0.1462341568E-02       4    7    1        -0.7872040269E-01      0.2099008307E+00
          0                 3           1             4    7     1       0.9950494491E-04       4    7    1         0.5506258354E-02      0.1468634499E-01

    ------------------------------------------------
       NWT REQUIRED            3 OUTER ITERATIONS 
       AND A TOTAL OF          5 INNER ITERATIONS.
    ------------------------------------------------

 NO OUTPUT CONTROL FOR STRESS PERIOD   38   TIME STEP   26
 
 SOLVING FOR HEAD 
                                                   Max.-Head-Change                         Max.-Flux-Residual
  Residual-Control   Outer-Iter.   Inner-Iter.     Column Row Layer    Maximum-Head-Change  Column Row Layer    Maximum-Flux-Residual          L2-NORM 
          0                 1           2             4    7     1       0.1492547550E-01       4    7    1         0.7815287241E+00      0.2086742074E+01
          0                 2           2             4    7     1      -0.1451058267E-02       4    7    1        -0.7811058349E-01      0.2085978290E+00
          0                 3           1             4    7     1       0.9873717268E-04       4    7    1         0.5463603222E-02      0.1459518554E-01

    ------------------------------------------------
       NWT REQUIRED            3 OUTER ITERATIONS 
       AND A TOTAL OF          5 INNER ITERATIONS.
    ------------------------------------------------

 NO OUTPUT CONTROL FOR STRESS PERIOD   38   TIME STEP   27
 
 SOLVING FOR HEAD 
                                                   Max.-Head-Change                         Max.-Flux-Residual
  Residual-Control   Outer-Iter.   Inner-Iter.     Column Row Layer    Maximum-Head-Change  Column Row Layer    Maximum-Flux-Residual          L2-NORM 
          0                 1           2             4    7     1       0.1481086461E-01       4    7    1         0.7755039357E+00      0.2073830560E+01
          0                 2           2             4    7     1      -0.1439915717E-02       4    7    1        -0.7750842655E-01      0.2073094530E+00
          0                 3           1             4    7     1       0.9797897814E-04       4    7    1         0.5421484037E-02      0.1450504683E-01

    ------------------------------------------------
       NWT REQUIRED            3 OUTER ITERATIONS 
       AND A TOTAL OF          5 INNER ITERATIONS.
    ------------------------------------------------

 NO OUTPUT CONTROL FOR STRESS PERIOD   38   TIME STEP   28
 
 SOLVING FOR HEAD 
                                                   Max.-Head-Change                         Max.-Flux-Residual
  Residual-Control   Outer-Iter.   Inner-Iter.     Column Row Layer    Maximum-Head-Change  Column Row Layer    Maximum-Flux-Residual          L2-NORM 
          0                 1           2             4    7     1       0.1469740448E-01       4    7    1         0.7695395776E+00      0.2061069408E+01
          0                 2           2             4    7     1      -0.1428885043E-02       4    7    1        -0.7691230945E-01      0.2060355620E+00
          0                 3           1             4    7     1       0.9722839619E-04       4    7    1         0.5379787320E-02      0.1441597046E-01

    ------------------------------------------------
       NWT REQUIRED            3 OUTER ITERATIONS 
       AND A TOTAL OF          5 INNER ITERATIONS.
    ------------------------------------------------

 NO OUTPUT CONTROL FOR STRESS PERIOD   38   TIME STEP   29
 
 SOLVING FOR HEAD 
                                                   Max.-Head-Change                         Max.-Flux-Residual
  Residual-Control   Outer-Iter.   Inner-Iter.     Column Row Layer    Maximum-Head-Change  Column Row Layer    Maximum-Flux-Residual          L2-NORM 
          0                 1           2             4    7     1       0.1458535157E-01       4    7    1         0.7636495156E+00      0.2048460406E+01
          0                 2           2             4    7     1      -0.1417991183E-02       4    7    1        -0.7632361805E-01      0.2047765063E+00
          0                 3           1             4    7     1       0.9648712320E-04       4    7    1         0.5338610001E-02      0.1432787378E-01

    ------------------------------------------------
       NWT REQUIRED            3 OUTER ITERATIONS 
       AND A TOTAL OF          5 INNER ITERATIONS.
    ------------------------------------------------

 NO OUTPUT CONTROL FOR STRESS PERIOD   38   TIME STEP   30



 STREAM LISTING     PERIOD     38   STEP       30

 LAYER ROW COL. STREAM  RCH.  FLOW INTO     FLOW TO   FLOW OUT OF   OVRLND.     DIRECT     STREAM       STREAM     STREAM     STREAM   STREAMBED  STREAMBED
                SEG.NO.  NO.  STRM. RCH.    AQUIFER    STRM. RCH.    RUNOFF     PRECIP       ET          HEAD       DEPTH      WIDTH   CONDCTNC.   GRADIENT

   1    1    1     1     1    1.9000E+01  2.1427E-01   1.8786E+01  0.000E+00  0.000E+00  0.000E+00  1.09413E+03  1.082E+00  1.166E+01  5.249E-02  1.361E+00
   1    2    2     1     2    1.8786E+01  3.3054E-01   1.8455E+01  0.000E+00  0.000E+00  0.000E+00  1.08914E+03  1.077E+00  1.158E+01  8.107E-02  1.359E+00
   1    3    3     1     3    1.8455E+01  2.8064E-01   1.8175E+01  0.000E+00  0.000E+00  0.000E+00  1.08349E+03  1.072E+00  1.149E+01  6.892E-02  1.357E+00
   1    3    4     1     4    1.8175E+01  2.5740E-01   1.7917E+01  0.000E+00  0.000E+00  0.000E+00  1.07848E+03  1.068E+00  1.140E+01  6.328E-02  1.356E+00
   1    4    5     2     1    1.5917E+01  3.0542E-01   1.5612E+01  0.000E+00  0.000E+00  0.000E+00  1.07285E+03  9.157E-01  1.200E+01  7.800E-02  1.305E+00
   1    5    6     2     2    1.5612E+01  2.3438E-01   1.5377E+01  0.000E+00  0.000E+00  0.000E+00  1.06742E+03  9.063E-01  1.200E+01  6.000E-02  1.302E+00
   1    6    6     2     3    1.5377E+01  2.3388E-01   1.5143E+01  0.000E+00  0.000E+00  0.000E+00  1.06269E+03  8.980E-01  1.200E+01  6.000E-02  1.299E+00
   1    7    6     2     4    1.5143E+01  2.3338E-01   1.4910E+01  0.000E+00  0.000E+00  0.000E+00  1.05797E+03  8.897E-01  1.200E+01  6.000E-02  1.297E+00
   1    8    6     2     5    1.4910E+01  2.3289E-01   1.4677E+01  0.000E+00  0.000E+00  0.000E+00  1.05324E+03  8.814E-01  1.200E+01  6.000E-02  1.294E+00
   1    3    5     3     1    2.0000E+00  2.8252E-01   1.7175E+00  0.000E+00  0.000E+00  0.000E+00  1.07555E+03  1.909E+00  9.636E+00  7.227E-02  1.955E+00
   1    3    6     3     2    1.7175E+00  2.4905E-01   1.4684E+00  0.000E+00  0.000E+00  0.000E+00  1.07264E+03  1.727E+00  8.909E+00  6.682E-02  1.864E+00
   1    3    7     3     3    1.4684E+00  1.9718E-01   1.2712E+00  0.000E+00  0.000E+00  0.000E+00  1.06987E+03  1.555E+00  8.218E+00  5.547E-02  1.777E+00
   1    4    8     3     4    1.2712E+00  2.2567E-01   1.0456E+00  0.000E+00  0.000E+00  0.000E+00  1.06682E+03  1.364E+00  7.455E+00  6.709E-02  1.682E+00
   1    5    8     3     5    1.0456E+00  1.5790E-01   8.8768E-01  0.000E+00  0.000E+00  0.000E+00  1.06362E+03  1.164E+00  6.655E+00  4.991E-02  1.582E+00
   1    6    8     3     6    8.8768E-01  5.5980E-02   8.3170E-01  0.000E+00  0.000E+00  0.000E+00  1.06158E+03  1.036E+00  6.145E+00  1.844E-02  1.518E+00
   1    5   10     4     1    1.0000E+01  9.0919E-02   9.9091E+00  0.000E+00  0.000E+00  0.000E+00  1.07836E+03  6.368E-01  1.000E+01  2.500E-02  1.212E+00
   1    5    9     4     2    9.9091E+00  1.8158E-01   9.7275E+00  0.000E+00  0.000E+00  0.000E+00  1.07154E+03  6.315E-01  1.000E+01  5.000E-02  1.211E+00
   1    6    8     4     3    9.7275E+00  1.2689E-01   9.6006E+00  0.000E+00  0.000E+00  0.000E+00  1.06381E+03  6.256E-01  1.000E+01  3.500E-02  1.209E+00
   1    6    8     5     1    1.0432E+01  2.2686E-01   1.0205E+01  0.000E+00  0.000E+00  0.000E+00  1.05868E+03  6.790E-01  1.542E+01  6.166E-02  1.226E+00
   1    7    7     5     2    1.0205E+01  2.7894E-01   9.9265E+00  0.000E+00  0.000E+00  0.000E+00  1.05417E+03  6.732E-01  1.519E+01  7.594E-02  1.224E+00
   1    8    7     5     3    9.9265E+00  1.9221E-01   9.7343E+00  0.000E+00  0.000E+00  0.000E+00  1.04992E+03  6.676E-01  1.497E+01  5.241E-02  1.223E+00
   1    8    6     5     4    9.7343E+00  1.3577E-01   9.5985E+00  0.000E+00  0.000E+00  0.000E+00  1.04691E+03  6.637E-01  1.482E+01  3.706E-02  1.221E+00
   1    9    6     6     1    2.4276E+01  2.5176E-01   2.4024E+01  0.000E+00  0.000E+00  0.000E+00  1.04392E+03  1.196E+00  1.200E+01  6.000E-02  1.399E+00
   1   10    7     6     2    2.4024E+01  2.5131E-01   2.3773E+01  0.000E+00  0.000E+00  0.000E+00  1.03937E+03  1.188E+00  1.200E+01  6.000E-02  1.396E+00
   1   11    7     6     3    2.3773E+01  2.5086E-01   2.3522E+01  0.000E+00  0.000E+00  0.000E+00  1.03482E+03  1.181E+00  1.200E+01  6.000E-02  1.394E+00
   1   12    7     6     4    2.3522E+01  2.5041E-01   2.3271E+01  0.000E+00  0.000E+00  0.000E+00  1.03026E+03  1.173E+00  1.200E+01  6.000E-02  1.391E+00
   1   13    7     6     5    2.3271E+01  9.0343E-03   2.3262E+01  0.000E+00  0.000E+00  0.000E+00  1.02708E+03  1.170E+00  1.200E+01  2.400E-02  1.255E-01
   1   14    9     7     1    1.5000E+02  1.3616E+00   1.4864E+02  0.000E+00  0.000E+00  0.000E+00  1.03987E+03  2.288E+00  5.529E+01  5.593E-01  8.115E-01
   1   13    8     7     2    1.4864E+02  1.9412E+00   1.4670E+02  0.000E+00  0.000E+00  0.000E+00  1.03478E+03  2.279E+00  5.525E+01  6.148E-01  1.053E+00
   1   13    7     7     3    1.4670E+02  1.6676E+00   1.4503E+02  0.000E+00  0.000E+00  0.000E+00  1.02969E+03  2.269E+00  5.521E+01  5.584E-01  9.955E-01
   1   13    6     8     1    1.6829E+02  1.1097E+00   1.6718E+02  0.000E+00  0.000E+00  0.000E+00  1.02481E+03  2.937E+00  4.259E+01  4.340E-01  8.523E-01
   1   13    5     8     2    1.6718E+02  3.5535E-01   1.6683E+02  0.000E+00  0.000E+00  0.000E+00  1.01856E+03  2.933E+00  4.252E+01  4.333E-01  2.734E-01
   1   13    4     8     3    1.6683E+02 -1.8223E+00   1.6865E+02  0.000E+00  0.000E+00  0.000E+00  1.01231E+03  2.937E+00  4.259E+01  4.340E+00 -1.400E-01
   1   13    3     8     4    1.6865E+02 -3.3743E+00   1.7202E+02  0.000E+00  0.000E+00  0.000E+00  1.00608E+03  2.954E+00  4.284E+01  4.365E+00 -2.577E-01
   1   13    2     8     5    1.7202E+02 -2.5122E+00   1.7454E+02  0.000E+00  0.000E+00  0.000E+00  9.99848E+02  2.973E+00  4.311E+01  4.394E+00 -1.906E-01
   1   13    1     8     6    1.7454E+02 -1.9654E+00   1.7650E+02  0.000E+00  0.000E+00  0.000E+00  9.94863E+02  2.988E+00  4.332E+01  2.649E+00 -2.473E-01





UNSATURATED ZONE PACKAGE VOLUMETRIC BUDGET FOR  TIME STEP    30 STRESS PERIOD   38
  ------------------------------------------------------------------------------



     CUMULATIVE VOLUMES      L**3       RATES FOR THIS TIME STEP      L**3/T
     ------------------                 ------------------------

           IN:                                      IN:
           ---                                      ---
        INFILTRATION =  1839950875.0842          INFILTRATION =           4.4075

          OUT:                                     OUT:
          ----                                     ----
              UZF ET =  1502739331.6237                UZF ET =           0.7253
        UZF RECHARGE =   221789311.3161          UZF RECHARGE =           0.0479

            IN - OUT =   115422232.1445              IN - OUT =           3.6342

          STORAGE:                                 STORAGE:
          --------                                 --------
      STORAGE CHANGE =   115423736.4008        STORAGE CHANGE =           3.6342

 PERCENT DISCREPANCY IS DIFFERENCE BETWEEN IN-OUT MINUS CHANGE IN STORAGE
 DIVIDED BY THE AVERAGE OF IN AND OUT TIMES 100

 PERCENT DISCREPANCY =          -0.00     PERCENT DISCREPANCY =           0.00






1
  VOLUMETRIC BUDGET FOR AGRICULTURAL FIELDS AT TIME STEP   30, STRESS PERIOD  38
  ------------------------------------------------------------------------------

     CUMULATIVE VOLUMES      L**3       RATES FOR THIS TIME STEP      L**3/T
     ------------------                 ------------------------

           IN:                                      IN:
           ---                                      ---
               AG WELLS  =  1410983296.0000                 AG WELLS  =           0.0000
      DIVERSION SEGMENTS =           0.0000        DIVERSION SEGMENTS =           0.0000
           GW IRRIGATION =           0.0000             GW IRRIGATION =           0.0000
           SW IRRIGATION =           0.0000             SW IRRIGATION =           0.0000
        SYSTEM LOSSES GW =           0.0000          SYSTEM LOSSES GW =           0.0000
        SYSTEM LOSSES SW =           0.0000          SYSTEM LOSSES SW =           0.0000

                TOTAL IN =  1410983296.0000                  TOTAL IN =           0.0000

          OUT:                                     OUT:
          ----                                     ----
               AG WELLS  =           0.0000                 AG WELLS  =           0.0000
      DIVERSION SEGMENTS =           0.0000        DIVERSION SEGMENTS =           0.0000
           GW IRRIGATION =  1410983296.0000             GW IRRIGATION =           0.0000
           SW IRRIGATION =           0.0000             SW IRRIGATION =           0.0000
        SYSTEM LOSSES GW =           0.0000          SYSTEM LOSSES GW =           0.0000
        SYSTEM LOSSES SW =           0.0000          SYSTEM LOSSES SW =           0.0000

               TOTAL OUT =  1410983296.0000                 TOTAL OUT =           0.0000

                IN - OUT =           0.0000                  IN - OUT =           0.0000

     PERCENT DISCREPANCY =           0.00         PERCENT DISCREPANCY =           0.00



1
  VOLUMETRIC BUDGET FOR ENTIRE MODEL AT END OF TIME STEP   30, STRESS PERIOD  38
  ------------------------------------------------------------------------------

     CUMULATIVE VOLUMES      L**3       RATES FOR THIS TIME STEP      L**3/T
     ------------------                 ------------------------

           IN:                                      IN:
           ---                                      ---
             STORAGE     =  1837241728.0000               STORAGE     =           5.4933
       CONSTANT HEAD     =           0.0000         CONSTANT HEAD     =           0.0000
     HEAD DEP BOUNDS     =    27845246.0000       HEAD DEP BOUNDS     =           0.2875
      STREAM LEAKAGE     =  1193004032.0000        STREAM LEAKAGE     =          12.1730
        UZF RECHARGE     =   221789232.0000          UZF RECHARGE     =       4.7916E-02
               GW ET     =           0.0000                 GW ET     =           0.0000
     SURFACE LEAKAGE     =           0.0000       SURFACE LEAKAGE     =           0.0000
           AG WELLS      =           0.0000             AG WELLS      =           0.0000

                TOTAL IN =  3279880192.0000                  TOTAL IN =          18.0017

          OUT:                                     OUT:
          ----                                     ----
             STORAGE     =   824814784.0000               STORAGE     =           8.0391
       CONSTANT HEAD     =           0.0000         CONSTANT HEAD     =           0.0000
     HEAD DEP BOUNDS     =    28473498.0000       HEAD DEP BOUNDS     =           0.2890
      STREAM LEAKAGE     =   998306880.0000        STREAM LEAKAGE     =           9.6743
        UZF RECHARGE     =           0.0000          UZF RECHARGE     =           0.0000
               GW ET     =    17288296.0000                 GW ET     =           0.0000
     SURFACE LEAKAGE     =           0.0000       SURFACE LEAKAGE     =           0.0000
           AG WELLS      =  1410983296.0000             AG WELLS      =           0.0000

               TOTAL OUT =  3279866880.0000                 TOTAL OUT =          18.0024

                IN - OUT =       13312.0000                  IN - OUT =      -7.1716E-04

     PERCENT DISCREPANCY =           0.00         PERCENT DISCREPANCY =          -0.00






         TIME SUMMARY AT END OF TIME STEP   30 IN STRESS PERIOD   38
                    SECONDS     MINUTES      HOURS       DAYS        YEARS
                    -----------------------------------------------------------
   TIME STEP LENGTH  87667.      1461.1      24.352      1.0147     2.77799E-03
 STRESS PERIOD TIME 2.63000E+06  43833.      730.56      30.440     8.33397E-02
         TOTAL TIME 9.73959E+07 1.62326E+06  27054.      1127.3      3.0863    
1
1
                            STRESS PERIOD NO.   39, LENGTH =   2630000.    
                            -----------------------------------------------

                              NUMBER OF TIME STEPS =    30

                               MULTIPLIER FOR DELT =     1.000

                            INITIAL TIME STEP SIZE =   87666.66    

 REUSING NON-PARAMETER GHB CELLS FROM LAST STRESS PERIOD

      2 GHB CELLS

 REUSING STREAM SEGMENT DATA FROM LAST STRESS PERIOD



            AREAL INFILTRATION RATE
 READING ON UNIT   19 WITH FORMAT: (10F4.0)            

            1           2           3           4           5           6           7           8           9          10
 ........................................................................................................................
   1   1.2000E-09   0.000       0.000       0.000       0.000       0.000       0.000       0.000       0.000       0.000    
   2   2.1000E-09  2.0000E-09  8.0000E-10  8.5000E-09   0.000       0.000       0.000       0.000       0.000       0.000    
   3   5.0000E-10  1.1000E-09  8.8000E-09  5.5000E-09   0.000       0.000       0.000       0.000       0.000       0.000    
   4   8.5000E-09  1.1000E-09  1.1000E-09  1.1000E-09  2.0000E-09   0.000       0.000       0.000       0.000       0.000    
   5   8.5000E-09  1.1000E-09  1.1000E-09  1.1000E-09  1.1000E-09   0.000       0.000       0.000       0.000       0.000    
   6   8.5000E-09  5.2000E-09  2.1000E-09  1.1000E-09  1.5000E-09   0.000       0.000       0.000       0.000       0.000    
   7   8.5000E-09  5.2000E-09  2.1000E-09  1.2000E-09  2.0000E-09   0.000       0.000       0.000       0.000       0.000    
   8   5.0000E-10  5.2000E-09  2.1000E-09  1.2000E-09  5.0000E-09   0.000       0.000       0.000       0.000       0.000    
   9   5.0000E-10  5.2000E-09  2.1000E-09  1.2000E-09  5.0000E-09   0.000       0.000       0.000       0.000       0.000    
  10   5.0000E-10  5.2000E-09  2.1000E-09  1.2000E-09  5.8000E-09   0.000       0.000       0.000       0.000       0.000    
  11   1.0000E-10  1.1000E-09  1.1000E-09  1.2000E-09  5.0000E-09   0.000       0.000       0.000       0.000       0.000    
  12   1.1000E-09  1.1000E-09  1.1000E-09  1.1000E-09  2.0000E-09   0.000       0.000       0.000       0.000       0.000    
  13   1.1000E-09  2.2000E-09  2.2000E-09  2.1000E-09  1.0000E-09   0.000       0.000       0.000       0.000       0.000    
  14   2.0000E-10  5.5000E-09  5.5000E-09  5.2000E-09  1.0000E-09   0.000       0.000       0.000       0.000       0.000    
  15    0.000      8.8000E-09  8.8000E-09   0.000       0.000       0.000       0.000       0.000       0.000       0.000    

                  ET RATE =  5.000000E-10

 USING ET EXTINCTION DEPTH FROM PREVIOUS STRESS PERIOD. CURRENT PERIOD IS:      39

 USING EXTINCTION WATER CONTENT FROM PREVIOUS STRESS PERIOD. CURRENT PERIOD IS:      39

 USING AIR ENTRY PRESSURE FROM PREVIOUS STRESS PERIOD. CURRENT PERIOD IS:      39

 USING ROOT PRESSURE HEAD FROM PREVIOUS STRESS PERIOD. CURRENT PERIOD IS:      39

 USING ROOT ACTIVITY FROM PREVIOUS STRESS PERIOD. CURRENT PERIOD IS:      39

 PROCESSING AG STRESS PERIOD DATA

 READING AG STRESS PERIOD DATA

 READING IRRIGATION WELL

 END PROCESSING AG STRESS PERIOD DATA OPTIONS
 
 SOLVING FOR HEAD 
                                                   Max.-Head-Change                         Max.-Flux-Residual
  Residual-Control   Outer-Iter.   Inner-Iter.     Column Row Layer    Maximum-Head-Change  Column Row Layer    Maximum-Flux-Residual          L2-NORM 
          0                 1           2             4    7     1       0.1447467754E-01       4    7    1         0.7578324160E+00      0.2035997346E+01
          0                 2           2             4    7     1      -0.1407231379E-02       4    7    1        -0.7574221909E-01      0.2035316641E+00
          0                 3           1             4    7     1       0.9575497254E-04       4    7    1         0.5297942787E-02      0.1424078309E-01

    ------------------------------------------------
       NWT REQUIRED            3 OUTER ITERATIONS 
       AND A TOTAL OF          5 INNER ITERATIONS.
    ------------------------------------------------

 NO OUTPUT CONTROL FOR STRESS PERIOD   39   TIME STEP    1
 
 SOLVING FOR HEAD 
                                                   Max.-Head-Change                         Max.-Flux-Residual
  Residual-Control   Outer-Iter.   Inner-Iter.     Column Row Layer    Maximum-Head-Change  Column Row Layer    Maximum-Flux-Residual          L2-NORM 
          0                 1           2             4    7     1       0.1436508291E-01       4    7    1         0.7520721755E+00      0.2023667374E+01
          0                 2           2             4    7     1      -0.1396576516E-02       4    7    1        -0.7516650303E-01      0.2022999338E+00
          0                 3           1             4    7     1       0.9502996255E-04       4    7    1         0.5257673064E-02      0.1415464422E-01

    ------------------------------------------------
       NWT REQUIRED            3 OUTER ITERATIONS 
       AND A TOTAL OF          5 INNER ITERATIONS.
    ------------------------------------------------

 NO OUTPUT CONTROL FOR STRESS PERIOD   39   TIME STEP    2
 
 SOLVING FOR HEAD 
                                                   Max.-Head-Change                         Max.-Flux-Residual
  Residual-Control   Outer-Iter.   Inner-Iter.     Column Row Layer    Maximum-Head-Change  Column Row Layer    Maximum-Flux-Residual          L2-NORM 
          0                 1           2             4    7     1       0.1425682815E-01       4    7    1         0.7463825330E+00      0.2011480351E+01
          0                 2           2             4    7     1      -0.1386051916E-02       4    7    1        -0.7459784304E-01      0.2010822381E+00
          0                 3           1             4    7     1       0.9431381621E-04       4    7    1         0.5217896897E-02      0.1406942996E-01

    ------------------------------------------------
       NWT REQUIRED            3 OUTER ITERATIONS 
       AND A TOTAL OF          5 INNER ITERATIONS.
    ------------------------------------------------

 NO OUTPUT CONTROL FOR STRESS PERIOD   39   TIME STEP    3
 
 SOLVING FOR HEAD 
                                                   Max.-Head-Change                         Max.-Flux-Residual
  Residual-Control   Outer-Iter.   Inner-Iter.     Column Row Layer    Maximum-Head-Change  Column Row Layer    Maximum-Flux-Residual          L2-NORM 
          0                 1           2             4    7     1       0.1414988592E-01       4    7    1         0.7407623604E+00      0.1999433680E+01
          0                 2           2             4    7     1      -0.1375654923E-02       4    7    1        -0.7403612642E-01      0.1998784534E+00
          0                 3           1             4    7     1       0.9360635270E-04       4    7    1         0.5178606407E-02      0.1398522825E-01

    ------------------------------------------------
       NWT REQUIRED            3 OUTER ITERATIONS 
       AND A TOTAL OF          5 INNER ITERATIONS.
    ------------------------------------------------

 NO OUTPUT CONTROL FOR STRESS PERIOD   39   TIME STEP    4
 
 SOLVING FOR HEAD 
                                                   Max.-Head-Change                         Max.-Flux-Residual
  Residual-Control   Outer-Iter.   Inner-Iter.     Column Row Layer    Maximum-Head-Change  Column Row Layer    Maximum-Flux-Residual          L2-NORM 
          0                 1           2             4    7     1       0.1404409470E-01       4    7    1         0.7352029227E+00      0.1987517672E+01
          0                 2           2             4    7     1      -0.1365369832E-02       4    7    1        -0.7348048012E-01      0.1986876247E+00
          0                 3           1             4    7     1       0.9290650392E-04       4    7    1         0.5139740512E-02      0.1390192178E-01

    ------------------------------------------------
       NWT REQUIRED            3 OUTER ITERATIONS 
       AND A TOTAL OF          5 INNER ITERATIONS.
    ------------------------------------------------

 NO OUTPUT CONTROL FOR STRESS PERIOD   39   TIME STEP    5
 
 SOLVING FOR HEAD 
                                                   Max.-Head-Change                         Max.-Flux-Residual
  Residual-Control   Outer-Iter.   Inner-Iter.     Column Row Layer    Maximum-Head-Change  Column Row Layer    Maximum-Flux-Residual          L2-NORM 
          0                 1           2             4    7     1       0.1393943774E-01       4    7    1         0.7297031625E+00      0.1975730823E+01
          0                 2           2             4    7     1      -0.1355195016E-02       4    7    1        -0.7293079838E-01      0.1975096113E+00
          0                 3           1             4    7     1       0.9221415874E-04       4    7    1         0.5101291817E-02      0.1381950625E-01

    ------------------------------------------------
       NWT REQUIRED            3 OUTER ITERATIONS 
       AND A TOTAL OF          5 INNER ITERATIONS.
    ------------------------------------------------

 NO OUTPUT CONTROL FOR STRESS PERIOD   39   TIME STEP    6
 
 SOLVING FOR HEAD 
                                                   Max.-Head-Change                         Max.-Flux-Residual
  Residual-Control   Outer-Iter.   Inner-Iter.     Column Row Layer    Maximum-Head-Change  Column Row Layer    Maximum-Flux-Residual          L2-NORM 
          0                 1           2             4    7     1       0.1383603434E-01       4    7    1         0.7242695295E+00      0.1964142014E+01
          0                 2           2             4    7     1      -0.1345142072E-02       4    7    1        -0.7238772591E-01      0.1963419100E+00
          0                 3           1             4    7     1       0.9153010613E-04       4    7    1         0.5063305431E-02      0.1373783441E-01

    ------------------------------------------------
       NWT REQUIRED            3 OUTER ITERATIONS 
       AND A TOTAL OF          5 INNER ITERATIONS.
    ------------------------------------------------

 NO OUTPUT CONTROL FOR STRESS PERIOD   39   TIME STEP    7
 
 SOLVING FOR HEAD 
                                                   Max.-Head-Change                         Max.-Flux-Residual
  Residual-Control   Outer-Iter.   Inner-Iter.     Column Row Layer    Maximum-Head-Change  Column Row Layer    Maximum-Flux-Residual          L2-NORM 
          0                 1           2             4    7     1       0.1373372614E-01       4    7    1         0.7188935730E+00      0.1952649600E+01
          0                 2           2             4    7     1      -0.1335195604E-02       4    7    1        -0.7185041801E-01      0.1951877265E+00
          0                 3           1             4    7     1       0.9085329891E-04       4    7    1         0.5025722253E-02      0.1365707207E-01

    ------------------------------------------------
       NWT REQUIRED            3 OUTER ITERATIONS 
       AND A TOTAL OF          5 INNER ITERATIONS.
    ------------------------------------------------

 NO OUTPUT CONTROL FOR STRESS PERIOD   39   TIME STEP    8
 
 SOLVING FOR HEAD 
                                                   Max.-Head-Change                         Max.-Flux-Residual
  Residual-Control   Outer-Iter.   Inner-Iter.     Column Row Layer    Maximum-Head-Change  Column Row Layer    Maximum-Flux-Residual          L2-NORM 
          0                 1           2             4    7     1       0.1363249559E-01       4    7    1         0.7135744002E+00      0.1941181189E+01
          0                 2           2             4    7     1      -0.1325353907E-02       4    7    1        -0.7131878551E-01      0.1940457996E+00
          0                 3           1             4    7     1       0.9018362065E-04       4    7    1         0.4988536069E-02      0.1357720659E-01

    ------------------------------------------------
       NWT REQUIRED            3 OUTER ITERATIONS 
       AND A TOTAL OF          5 INNER ITERATIONS.
    ------------------------------------------------

 NO OUTPUT CONTROL FOR STRESS PERIOD   39   TIME STEP    9
 
 SOLVING FOR HEAD 
                                                   Max.-Head-Change                         Max.-Flux-Residual
  Residual-Control   Outer-Iter.   Inner-Iter.     Column Row Layer    Maximum-Head-Change  Column Row Layer    Maximum-Flux-Residual          L2-NORM 
          0                 1           2             4    7     1       0.1353259706E-01       4    7    1         0.7083257384E+00      0.1929851347E+01
          0                 2           2             4    7     1      -0.1315641711E-02       4    7    1        -0.7079420041E-01      0.1929165873E+00
          0                 3           1             4    7     1       0.8952275444E-04       4    7    1         0.4951842830E-02      0.1349821532E-01

    ------------------------------------------------
       NWT REQUIRED            3 OUTER ITERATIONS 
       AND A TOTAL OF          5 INNER ITERATIONS.
    ------------------------------------------------

 NO OUTPUT CONTROL FOR STRESS PERIOD   39   TIME STEP   10
 
 SOLVING FOR HEAD 
                                                   Max.-Head-Change                         Max.-Flux-Residual
  Residual-Control   Outer-Iter.   Inner-Iter.     Column Row Layer    Maximum-Head-Change  Column Row Layer    Maximum-Flux-Residual          L2-NORM 
          0                 1           2             4    7     1       0.1343359833E-01       4    7    1         0.7031241840E+00      0.1918658705E+01
          0                 2           2             4    7     1      -0.1306016994E-02       4    7    1        -0.7027432355E-01      0.1918002217E+00
          0                 3           1             4    7     1       0.8886784056E-04       4    7    1         0.4915478908E-02      0.1342012142E-01

    ------------------------------------------------
       NWT REQUIRED            3 OUTER ITERATIONS 
       AND A TOTAL OF          5 INNER ITERATIONS.
    ------------------------------------------------

 NO OUTPUT CONTROL FOR STRESS PERIOD   39   TIME STEP   11
 
 SOLVING FOR HEAD 
                                                   Max.-Head-Change                         Max.-Flux-Residual
  Residual-Control   Outer-Iter.   Inner-Iter.     Column Row Layer    Maximum-Head-Change  Column Row Layer    Maximum-Flux-Residual          L2-NORM 
          0                 1           2             4    7     1       0.1333575999E-01       4    7    1         0.6979839195E+00      0.1907589089E+01
          0                 2           2             4    7     1      -0.1296505091E-02       4    7    1        -0.6976057246E-01      0.1906954843E+00
          0                 3           1             4    7     1       0.8822060330E-04       4    7    1         0.4879543470E-02      0.1334283101E-01

    ------------------------------------------------
       NWT REQUIRED            3 OUTER ITERATIONS 
       AND A TOTAL OF          5 INNER ITERATIONS.
    ------------------------------------------------

 NO OUTPUT CONTROL FOR STRESS PERIOD   39   TIME STEP   12
 
 SOLVING FOR HEAD 
                                                   Max.-Head-Change                         Max.-Flux-Residual
  Residual-Control   Outer-Iter.   Inner-Iter.     Column Row Layer    Maximum-Head-Change  Column Row Layer    Maximum-Flux-Residual          L2-NORM 
          0                 1           2             4    7     1       0.1323905984E-01       4    7    1         0.6929038192E+00      0.1896646472E+01
          0                 2           2             4    7     1      -0.1287103844E-02       4    7    1        -0.6925283459E-01      0.1896029354E+00
          0                 3           1             4    7     1       0.8758089521E-04       4    7    1         0.4844028636E-02      0.1326640072E-01

    ------------------------------------------------
       NWT REQUIRED            3 OUTER ITERATIONS 
       AND A TOTAL OF          5 INNER ITERATIONS.
    ------------------------------------------------

 NO OUTPUT CONTROL FOR STRESS PERIOD   39   TIME STEP   13
 
 SOLVING FOR HEAD 
                                                   Max.-Head-Change                         Max.-Flux-Residual
  Residual-Control   Outer-Iter.   Inner-Iter.     Column Row Layer    Maximum-Head-Change  Column Row Layer    Maximum-Flux-Residual          L2-NORM 
          0                 1           2             4    7     1       0.1314334418E-01       4    7    1         0.6878754126E+00      0.1885829065E+01
          0                 2           2             4    7     1      -0.1277798311E-02       4    7    1        -0.6875026338E-01      0.1885225328E+00
          0                 3           1             4    7     1       0.8694770025E-04       4    7    1         0.4808875190E-02      0.1319083138E-01

    ------------------------------------------------
       NWT REQUIRED            3 OUTER ITERATIONS 
       AND A TOTAL OF          5 INNER ITERATIONS.
    ------------------------------------------------

 NO OUTPUT CONTROL FOR STRESS PERIOD   39   TIME STEP   14
 
 SOLVING FOR HEAD 
                                                   Max.-Head-Change                         Max.-Flux-Residual
  Residual-Control   Outer-Iter.   Inner-Iter.     Column Row Layer    Maximum-Head-Change  Column Row Layer    Maximum-Flux-Residual          L2-NORM 
          0                 1           2             4    7     1       0.1304873145E-01       4    7    1         0.6829053694E+00      0.1875126700E+01
          0                 2           2             4    7     1      -0.1268600008E-02       4    7    1        -0.6825352544E-01      0.1874533283E+00
          0                 3           1             4    7     1       0.8632180181E-04       4    7    1         0.4774129799E-02      0.1311601709E-01

    ------------------------------------------------
       NWT REQUIRED            3 OUTER ITERATIONS 
       AND A TOTAL OF          5 INNER ITERATIONS.
    ------------------------------------------------

 NO OUTPUT CONTROL FOR STRESS PERIOD   39   TIME STEP   15
 
 SOLVING FOR HEAD 
                                                   Max.-Head-Change                         Max.-Flux-Residual
  Residual-Control   Outer-Iter.   Inner-Iter.     Column Row Layer    Maximum-Head-Change  Column Row Layer    Maximum-Flux-Residual          L2-NORM 
          0                 1           2             4    7     1       0.1295520529E-01       4    7    1         0.6779925117E+00      0.1864544256E+01
          0                 2           2             4    7     1      -0.1259507340E-02       4    7    1        -0.6776250303E-01      0.1863958938E+00
          0                 3           1             4    7     1       0.8570309172E-04       4    7    1         0.4739784193E-02      0.1304206112E-01

    ------------------------------------------------
       NWT REQUIRED            3 OUTER ITERATIONS 
       AND A TOTAL OF          5 INNER ITERATIONS.
    ------------------------------------------------

 NO OUTPUT CONTROL FOR STRESS PERIOD   39   TIME STEP   16
 
 SOLVING FOR HEAD 
                                                   Max.-Head-Change                         Max.-Flux-Residual
  Residual-Control   Outer-Iter.   Inner-Iter.     Column Row Layer    Maximum-Head-Change  Column Row Layer    Maximum-Flux-Residual          L2-NORM 
          0                 1           2             4    7     1       0.1286261201E-01       4    7    1         0.6731286700E+00      0.1854074139E+01
          0                 2           2             4    7     1      -0.1250505368E-02       4    7    1        -0.6727637960E-01      0.1853495164E+00
          0                 3           1             4    7     1       0.8509055254E-04       4    7    1         0.4705781209E-02      0.1296881240E-01

    ------------------------------------------------
       NWT REQUIRED            3 OUTER ITERATIONS 
       AND A TOTAL OF          5 INNER ITERATIONS.
    ------------------------------------------------

 NO OUTPUT CONTROL FOR STRESS PERIOD   39   TIME STEP   17
 
 SOLVING FOR HEAD 
                                                   Max.-Head-Change                         Max.-Flux-Residual
  Residual-Control   Outer-Iter.   Inner-Iter.     Column Row Layer    Maximum-Head-Change  Column Row Layer    Maximum-Flux-Residual          L2-NORM 
          0                 1           2             4    7     1       0.1277093745E-01       4    7    1         0.6683131969E+00      0.1843717831E+01
          0                 2           2             4    7     1      -0.1241592715E-02       4    7    1        -0.6679509049E-01      0.1843144163E+00
          0                 3           1             4    7     1       0.8448409113E-04       4    7    1         0.4672116414E-02      0.1289644238E-01

    ------------------------------------------------
       NWT REQUIRED            3 OUTER ITERATIONS 
       AND A TOTAL OF          5 INNER ITERATIONS.
    ------------------------------------------------

 NO OUTPUT CONTROL FOR STRESS PERIOD   39   TIME STEP   18
 
 SOLVING FOR HEAD 
                                                   Max.-Head-Change                         Max.-Flux-Residual
  Residual-Control   Outer-Iter.   Inner-Iter.     Column Row Layer    Maximum-Head-Change  Column Row Layer    Maximum-Flux-Residual          L2-NORM 
          0                 1           2             4    7     1       0.1268030491E-01       4    7    1         0.6635526774E+00      0.1833472082E+01
          0                 2           2             4    7     1      -0.1232781369E-02       4    7    1        -0.6631929384E-01      0.1832902707E+00
          0                 3           1             4    7     1       0.8388452282E-04       4    7    1         0.4638835782E-02      0.1282479760E-01

    ------------------------------------------------
       NWT REQUIRED            3 OUTER ITERATIONS 
       AND A TOTAL OF          5 INNER ITERATIONS.
    ------------------------------------------------

 NO OUTPUT CONTROL FOR STRESS PERIOD   39   TIME STEP   19
 
 SOLVING FOR HEAD 
                                                   Max.-Head-Change                         Max.-Flux-Residual
  Residual-Control   Outer-Iter.   Inner-Iter.     Column Row Layer    Maximum-Head-Change  Column Row Layer    Maximum-Flux-Residual          L2-NORM 
          0                 1           2             4    7     1       0.1259069648E-01       4    7    1         0.6588461847E+00      0.1823328456E+01
          0                 2           2             4    7     1      -0.1224069587E-02       4    7    1        -0.6584889701E-01      0.1822762870E+00
          0                 3           1             4    7     1       0.8329172965E-04       4    7    1         0.4605932855E-02      0.1275386713E-01

    ------------------------------------------------
       NWT REQUIRED            3 OUTER ITERATIONS 
       AND A TOTAL OF          5 INNER ITERATIONS.
    ------------------------------------------------

 NO OUTPUT CONTROL FOR STRESS PERIOD   39   TIME STEP   20
 
 SOLVING FOR HEAD 
                                                   Max.-Head-Change                         Max.-Flux-Residual
  Residual-Control   Outer-Iter.   Inner-Iter.     Column Row Layer    Maximum-Head-Change  Column Row Layer    Maximum-Flux-Residual          L2-NORM 
          0                 1           2             4    7     1       0.1250209269E-01       4    7    1         0.6541927905E+00      0.1813295150E+01
          0                 2           2             4    7     1      -0.1215455478E-02       4    7    1        -0.6538380723E-01      0.1812732670E+00
          0                 3           1             4    7     1       0.8270558308E-04       4    7    1         0.4573401155E-02      0.1268368274E-01

    ------------------------------------------------
       NWT REQUIRED            3 OUTER ITERATIONS 
       AND A TOTAL OF          5 INNER ITERATIONS.
    ------------------------------------------------

 NO OUTPUT CONTROL FOR STRESS PERIOD   39   TIME STEP   21
 
 SOLVING FOR HEAD 
                                                   Max.-Head-Change                         Max.-Flux-Residual
  Residual-Control   Outer-Iter.   Inner-Iter.     Column Row Layer    Maximum-Head-Change  Column Row Layer    Maximum-Flux-Residual          L2-NORM 
          0                 1           2             4    7     1       0.1241434388E-01       4    7    1         0.6495841643E+00      0.1803369489E+01
          0                 2           2             4    7     1      -0.1206924490E-02       4    7    1        -0.6492319186E-01      0.1802809964E+00
          0                 3           1             4    7     1       0.8212509171E-04       4    7    1         0.4541182402E-02      0.1261426424E-01

    ------------------------------------------------
       NWT REQUIRED            3 OUTER ITERATIONS 
       AND A TOTAL OF          5 INNER ITERATIONS.
    ------------------------------------------------

 NO OUTPUT CONTROL FOR STRESS PERIOD   39   TIME STEP   22
 
 SOLVING FOR HEAD 
                                                   Max.-Head-Change                         Max.-Flux-Residual
  Residual-Control   Outer-Iter.   Inner-Iter.     Column Row Layer    Maximum-Head-Change  Column Row Layer    Maximum-Flux-Residual          L2-NORM 
          0                 1           2             4    7     1       0.1232757334E-01       4    7    1         0.6450271878E+00      0.1793549583E+01
          0                 2           2             4    7     1      -0.1198488611E-02       4    7    1        -0.6446773876E-01      0.1792992835E+00
          0                 3           1             4    7     1       0.8155107252E-04       4    7    1         0.4509324758E-02      0.1254559684E-01

    ------------------------------------------------
       NWT REQUIRED            3 OUTER ITERATIONS 
       AND A TOTAL OF          5 INNER ITERATIONS.
    ------------------------------------------------

 NO OUTPUT CONTROL FOR STRESS PERIOD   39   TIME STEP   23
 
 SOLVING FOR HEAD 
                                                   Max.-Head-Change                         Max.-Flux-Residual
  Residual-Control   Outer-Iter.   Inner-Iter.     Column Row Layer    Maximum-Head-Change  Column Row Layer    Maximum-Flux-Residual          L2-NORM 
          0                 1           2             4    7     1       0.1224176415E-01       4    7    1         0.6405209331E+00      0.1783826265E+01
          0                 2           2             4    7     1      -0.1190146197E-02       4    7    1        -0.6401735515E-01      0.1783272207E+00
          0                 3           1             4    7     1       0.8098341345E-04       4    7    1         0.4477821725E-02      0.1247759891E-01

    ------------------------------------------------
       NWT REQUIRED            3 OUTER ITERATIONS 
       AND A TOTAL OF          5 INNER ITERATIONS.
    ------------------------------------------------

 NO OUTPUT CONTROL FOR STRESS PERIOD   39   TIME STEP   24
 
 SOLVING FOR HEAD 
                                                   Max.-Head-Change                         Max.-Flux-Residual
  Residual-Control   Outer-Iter.   Inner-Iter.     Column Row Layer    Maximum-Head-Change  Column Row Layer    Maximum-Flux-Residual          L2-NORM 
          0                 1           2             4    7     1       0.1215676677E-01       4    7    1         0.6360572014E+00      0.1774204872E+01
          0                 2           2             4    7     1      -0.1181882707E-02       4    7    1        -0.6357122156E-01      0.1773653527E+00
          0                 3           1             4    7     1       0.8042112403E-04       4    7    1         0.4446615936E-02      0.1241030699E-01

    ------------------------------------------------
       NWT REQUIRED            3 OUTER ITERATIONS 
       AND A TOTAL OF          5 INNER ITERATIONS.
    ------------------------------------------------

 NO OUTPUT CONTROL FOR STRESS PERIOD   39   TIME STEP   25
 
 SOLVING FOR HEAD 
                                                   Max.-Head-Change                         Max.-Flux-Residual
  Residual-Control   Outer-Iter.   Inner-Iter.     Column Row Layer    Maximum-Head-Change  Column Row Layer    Maximum-Flux-Residual          L2-NORM 
          0                 1           2             4    7     1       0.1207270225E-01       4    7    1         0.6316428821E+00      0.1764678621E+01
          0                 2           2             4    7     1      -0.1173709910E-02       4    7    1        -0.6313002660E-01      0.1764129642E+00
          0                 3           1             4    7     1       0.7986500610E-04       4    7    1         0.4415755606E-02      0.1234367593E-01

    ------------------------------------------------
       NWT REQUIRED            3 OUTER ITERATIONS 
       AND A TOTAL OF          5 INNER ITERATIONS.
    ------------------------------------------------

 NO OUTPUT CONTROL FOR STRESS PERIOD   39   TIME STEP   26
 
 SOLVING FOR HEAD 
                                                   Max.-Head-Change                         Max.-Flux-Residual
  Residual-Control   Outer-Iter.   Inner-Iter.     Column Row Layer    Maximum-Head-Change  Column Row Layer    Maximum-Flux-Residual          L2-NORM 
          0                 1           2             4    7     1       0.1198955934E-01       4    7    1         0.6272769297E+00      0.1755255102E+01
          0                 2           2             4    7     1      -0.1165626713E-02       4    7    1        -0.6269366579E-01      0.1754708957E+00
          0                 3           1             4    7     1       0.7931498499E-04       4    7    1         0.4385233405E-02      0.1227777338E-01

    ------------------------------------------------
       NWT REQUIRED            3 OUTER ITERATIONS 
       AND A TOTAL OF          5 INNER ITERATIONS.
    ------------------------------------------------

 NO OUTPUT CONTROL FOR STRESS PERIOD   39   TIME STEP   27
 
 SOLVING FOR HEAD 
                                                   Max.-Head-Change                         Max.-Flux-Residual
  Residual-Control   Outer-Iter.   Inner-Iter.     Column Row Layer    Maximum-Head-Change  Column Row Layer    Maximum-Flux-Residual          L2-NORM 
          0                 1           2             4    7     1       0.1190732043E-01       4    7    1         0.6229587612E+00      0.1745927153E+01
          0                 2           2             4    7     1      -0.1157631403E-02       4    7    1        -0.6226208082E-01      0.1745383651E+00
          0                 3           1             4    7     1       0.7877094438E-04       4    7    1         0.4355045272E-02      0.1221252630E-01

    ------------------------------------------------
       NWT REQUIRED            3 OUTER ITERATIONS 
       AND A TOTAL OF          5 INNER ITERATIONS.
    ------------------------------------------------

 NO OUTPUT CONTROL FOR STRESS PERIOD   39   TIME STEP   28
 
 SOLVING FOR HEAD 
                                                   Max.-Head-Change                         Max.-Flux-Residual
  Residual-Control   Outer-Iter.   Inner-Iter.     Column Row Layer    Maximum-Head-Change  Column Row Layer    Maximum-Flux-Residual          L2-NORM 
          0                 1           2             4    7     1       0.1182583533E-01       4    7    1         0.6186801409E+00      0.1736694657E+01
          0                 2           2             4    7     1      -0.1149709380E-02       4    7    1        -0.6183444859E-01      0.1736153999E+00
          0                 3           1             4    7     1       0.7823189011E-04       4    7    1         0.4325133609E-02      0.1214797607E-01

    ------------------------------------------------
       NWT REQUIRED            3 OUTER ITERATIONS 
       AND A TOTAL OF          5 INNER ITERATIONS.
    ------------------------------------------------

 NO OUTPUT CONTROL FOR STRESS PERIOD   39   TIME STEP   29
 
 SOLVING FOR HEAD 
                                                   Max.-Head-Change                         Max.-Flux-Residual
  Residual-Control   Outer-Iter.   Inner-Iter.     Column Row Layer    Maximum-Head-Change  Column Row Layer    Maximum-Flux-Residual          L2-NORM 
          0                 1           2             4    7     1       0.1174536647E-01       4    7    1         0.6144552495E+00      0.1727555620E+01
          0                 2           2             4    7     1      -0.1141886157E-02       4    7    1        -0.6141218638E-01      0.1727017718E+00
          0                 3           1             4    7     1       0.7769955915E-04       4    7    1         0.4295597579E-02      0.1208405284E-01

    ------------------------------------------------
       NWT REQUIRED            3 OUTER ITERATIONS 
       AND A TOTAL OF          5 INNER ITERATIONS.
    ------------------------------------------------

 NO OUTPUT CONTROL FOR STRESS PERIOD   39   TIME STEP   30



 STREAM LISTING     PERIOD     39   STEP       30

 LAYER ROW COL. STREAM  RCH.  FLOW INTO     FLOW TO   FLOW OUT OF   OVRLND.     DIRECT     STREAM       STREAM     STREAM     STREAM   STREAMBED  STREAMBED
                SEG.NO.  NO.  STRM. RCH.    AQUIFER    STRM. RCH.    RUNOFF     PRECIP       ET          HEAD       DEPTH      WIDTH   CONDCTNC.   GRADIENT

   1    1    1     1     1    1.9000E+01  2.1427E-01   1.8786E+01  0.000E+00  0.000E+00  0.000E+00  1.09413E+03  1.082E+00  1.166E+01  5.249E-02  1.361E+00
   1    2    2     1     2    1.8786E+01  3.3054E-01   1.8455E+01  0.000E+00  0.000E+00  0.000E+00  1.08914E+03  1.077E+00  1.158E+01  8.107E-02  1.359E+00
   1    3    3     1     3    1.8455E+01  2.8064E-01   1.8175E+01  0.000E+00  0.000E+00  0.000E+00  1.08349E+03  1.072E+00  1.149E+01  6.892E-02  1.357E+00
   1    3    4     1     4    1.8175E+01  2.5740E-01   1.7917E+01  0.000E+00  0.000E+00  0.000E+00  1.07848E+03  1.068E+00  1.140E+01  6.328E-02  1.356E+00
   1    4    5     2     1    1.5917E+01  3.0542E-01   1.5612E+01  0.000E+00  0.000E+00  0.000E+00  1.07285E+03  9.157E-01  1.200E+01  7.800E-02  1.305E+00
   1    5    6     2     2    1.5612E+01  2.3438E-01   1.5377E+01  0.000E+00  0.000E+00  0.000E+00  1.06742E+03  9.063E-01  1.200E+01  6.000E-02  1.302E+00
   1    6    6     2     3    1.5377E+01  2.3388E-01   1.5143E+01  0.000E+00  0.000E+00  0.000E+00  1.06269E+03  8.980E-01  1.200E+01  6.000E-02  1.299E+00
   1    7    6     2     4    1.5143E+01  2.3338E-01   1.4910E+01  0.000E+00  0.000E+00  0.000E+00  1.05797E+03  8.897E-01  1.200E+01  6.000E-02  1.297E+00
   1    8    6     2     5    1.4910E+01  2.3289E-01   1.4677E+01  0.000E+00  0.000E+00  0.000E+00  1.05324E+03  8.814E-01  1.200E+01  6.000E-02  1.294E+00
   1    3    5     3     1    2.0000E+00  2.8252E-01   1.7175E+00  0.000E+00  0.000E+00  0.000E+00  1.07555E+03  1.909E+00  9.636E+00  7.227E-02  1.955E+00
   1    3    6     3     2    1.7175E+00  2.4905E-01   1.4684E+00  0.000E+00  0.000E+00  0.000E+00  1.07264E+03  1.727E+00  8.909E+00  6.682E-02  1.864E+00
   1    3    7     3     3    1.4684E+00  1.9718E-01   1.2712E+00  0.000E+00  0.000E+00  0.000E+00  1.06987E+03  1.555E+00  8.218E+00  5.547E-02  1.777E+00
   1    4    8     3     4    1.2712E+00  2.2567E-01   1.0456E+00  0.000E+00  0.000E+00  0.000E+00  1.06682E+03  1.364E+00  7.455E+00  6.709E-02  1.682E+00
   1    5    8     3     5    1.0456E+00  1.5790E-01   8.8768E-01  0.000E+00  0.000E+00  0.000E+00  1.06362E+03  1.164E+00  6.655E+00  4.991E-02  1.582E+00
   1    6    8     3     6    8.8768E-01  5.5980E-02   8.3170E-01  0.000E+00  0.000E+00  0.000E+00  1.06158E+03  1.036E+00  6.145E+00  1.844E-02  1.518E+00
   1    5   10     4     1    1.0000E+01  9.0919E-02   9.9091E+00  0.000E+00  0.000E+00  0.000E+00  1.07836E+03  6.368E-01  1.000E+01  2.500E-02  1.212E+00
   1    5    9     4     2    9.9091E+00  1.8158E-01   9.7275E+00  0.000E+00  0.000E+00  0.000E+00  1.07154E+03  6.315E-01  1.000E+01  5.000E-02  1.211E+00
   1    6    8     4     3    9.7275E+00  1.2689E-01   9.6006E+00  0.000E+00  0.000E+00  0.000E+00  1.06381E+03  6.256E-01  1.000E+01  3.500E-02  1.209E+00
   1    6    8     5     1    1.0432E+01  2.2686E-01   1.0205E+01  0.000E+00  0.000E+00  0.000E+00  1.05868E+03  6.790E-01  1.542E+01  6.166E-02  1.226E+00
   1    7    7     5     2    1.0205E+01  2.7894E-01   9.9265E+00  0.000E+00  0.000E+00  0.000E+00  1.05417E+03  6.732E-01  1.519E+01  7.594E-02  1.224E+00
   1    8    7     5     3    9.9265E+00  1.9221E-01   9.7343E+00  0.000E+00  0.000E+00  0.000E+00  1.04992E+03  6.676E-01  1.497E+01  5.241E-02  1.223E+00
   1    8    6     5     4    9.7343E+00  1.3577E-01   9.5985E+00  0.000E+00  0.000E+00  0.000E+00  1.04691E+03  6.637E-01  1.482E+01  3.706E-02  1.221E+00
   1    9    6     6     1    2.4276E+01  2.5176E-01   2.4024E+01  0.000E+00  0.000E+00  0.000E+00  1.04392E+03  1.196E+00  1.200E+01  6.000E-02  1.399E+00
   1   10    7     6     2    2.4024E+01  2.5131E-01   2.3773E+01  0.000E+00  0.000E+00  0.000E+00  1.03937E+03  1.188E+00  1.200E+01  6.000E-02  1.396E+00
   1   11    7     6     3    2.3773E+01  2.5086E-01   2.3522E+01  0.000E+00  0.000E+00  0.000E+00  1.03482E+03  1.181E+00  1.200E+01  6.000E-02  1.394E+00
   1   12    7     6     4    2.3522E+01  2.5041E-01   2.3271E+01  0.000E+00  0.000E+00  0.000E+00  1.03026E+03  1.173E+00  1.200E+01  6.000E-02  1.391E+00
   1   13    7     6     5    2.3271E+01  9.5832E-03   2.3262E+01  0.000E+00  0.000E+00  0.000E+00  1.02708E+03  1.170E+00  1.200E+01  2.400E-02  1.331E-01
   1   14    9     7     1    1.5000E+02  1.3635E+00   1.4864E+02  0.000E+00  0.000E+00  0.000E+00  1.03987E+03  2.288E+00  5.529E+01  5.593E-01  8.126E-01
   1   13    8     7     2    1.4864E+02  1.9481E+00   1.4669E+02  0.000E+00  0.000E+00  0.000E+00  1.03478E+03  2.279E+00  5.525E+01  6.148E-01  1.056E+00
   1   13    7     7     3    1.4669E+02  1.6803E+00   1.4501E+02  0.000E+00  0.000E+00  0.000E+00  1.02969E+03  2.269E+00  5.521E+01  5.584E-01  1.003E+00
   1   13    6     8     1    1.6827E+02  1.1211E+00   1.6715E+02  0.000E+00  0.000E+00  0.000E+00  1.02481E+03  2.937E+00  4.259E+01  4.340E-01  8.610E-01
   1   13    5     8     2    1.6715E+02  3.6404E-01   1.6678E+02  0.000E+00  0.000E+00  0.000E+00  1.01856E+03  2.932E+00  4.252E+01  4.333E-01  2.801E-01
   1   13    4     8     3    1.6678E+02 -1.8225E+00   1.6861E+02  0.000E+00  0.000E+00  0.000E+00  1.01231E+03  2.937E+00  4.259E+01  4.340E+00 -1.400E-01
   1   13    3     8     4    1.6861E+02 -3.3725E+00   1.7198E+02  0.000E+00  0.000E+00  0.000E+00  1.00608E+03  2.954E+00  4.283E+01  4.365E+00 -2.575E-01
   1   13    2     8     5    1.7198E+02 -2.5098E+00   1.7449E+02  0.000E+00  0.000E+00  0.000E+00  9.99848E+02  2.973E+00  4.311E+01  4.393E+00 -1.904E-01
   1   13    1     8     6    1.7449E+02 -1.9642E+00   1.7645E+02  0.000E+00  0.000E+00  0.000E+00  9.94862E+02  2.987E+00  4.332E+01  2.649E+00 -2.472E-01





UNSATURATED ZONE PACKAGE VOLUMETRIC BUDGET FOR  TIME STEP    30 STRESS PERIOD   39
  ------------------------------------------------------------------------------



     CUMULATIVE VOLUMES      L**3       RATES FOR THIS TIME STEP      L**3/T
     ------------------                 ------------------------

           IN:                                      IN:
           ---                                      ---
        INFILTRATION =  1851542599.6423          INFILTRATION =           4.4075

          OUT:                                     OUT:
          ----                                     ----
              UZF ET =  1504646986.0482                UZF ET =           0.7253
        UZF RECHARGE =   221996374.3357          UZF RECHARGE =           0.0858

            IN - OUT =   124899239.2584              IN - OUT =           3.5964

          STORAGE:                                 STORAGE:
          --------                                 --------
      STORAGE CHANGE =   124900743.4454        STORAGE CHANGE =           3.5964

 PERCENT DISCREPANCY IS DIFFERENCE BETWEEN IN-OUT MINUS CHANGE IN STORAGE
 DIVIDED BY THE AVERAGE OF IN AND OUT TIMES 100

 PERCENT DISCREPANCY =          -0.00     PERCENT DISCREPANCY =           0.00






1
  VOLUMETRIC BUDGET FOR AGRICULTURAL FIELDS AT TIME STEP   30, STRESS PERIOD  39
  ------------------------------------------------------------------------------

     CUMULATIVE VOLUMES      L**3       RATES FOR THIS TIME STEP      L**3/T
     ------------------                 ------------------------

           IN:                                      IN:
           ---                                      ---
               AG WELLS  =  1410983296.0000                 AG WELLS  =           0.0000
      DIVERSION SEGMENTS =           0.0000        DIVERSION SEGMENTS =           0.0000
           GW IRRIGATION =           0.0000             GW IRRIGATION =           0.0000
           SW IRRIGATION =           0.0000             SW IRRIGATION =           0.0000
        SYSTEM LOSSES GW =           0.0000          SYSTEM LOSSES GW =           0.0000
        SYSTEM LOSSES SW =           0.0000          SYSTEM LOSSES SW =           0.0000

                TOTAL IN =  1410983296.0000                  TOTAL IN =           0.0000

          OUT:                                     OUT:
          ----                                     ----
               AG WELLS  =           0.0000                 AG WELLS  =           0.0000
      DIVERSION SEGMENTS =           0.0000        DIVERSION SEGMENTS =           0.0000
           GW IRRIGATION =  1410983296.0000             GW IRRIGATION =           0.0000
           SW IRRIGATION =           0.0000             SW IRRIGATION =           0.0000
        SYSTEM LOSSES GW =           0.0000          SYSTEM LOSSES GW =           0.0000
        SYSTEM LOSSES SW =           0.0000          SYSTEM LOSSES SW =           0.0000

               TOTAL OUT =  1410983296.0000                 TOTAL OUT =           0.0000

                IN - OUT =           0.0000                  IN - OUT =           0.0000

     PERCENT DISCREPANCY =           0.00         PERCENT DISCREPANCY =           0.00



1
  VOLUMETRIC BUDGET FOR ENTIRE MODEL AT END OF TIME STEP   30, STRESS PERIOD  39
  ------------------------------------------------------------------------------

     CUMULATIVE VOLUMES      L**3       RATES FOR THIS TIME STEP      L**3/T
     ------------------                 ------------------------

           IN:                                      IN:
           ---                                      ---
             STORAGE     =  1850329216.0000               STORAGE     =           4.5520
       CONSTANT HEAD     =           0.0000         CONSTANT HEAD     =           0.0000
     HEAD DEP BOUNDS     =    28601580.0000       HEAD DEP BOUNDS     =           0.2876
      STREAM LEAKAGE     =  1225076992.0000        STREAM LEAKAGE     =          12.2151
        UZF RECHARGE     =   221996288.0000          UZF RECHARGE     =       8.5751E-02
               GW ET     =           0.0000                 GW ET     =           0.0000
     SURFACE LEAKAGE     =           0.0000       SURFACE LEAKAGE     =           0.0000
           AG WELLS      =           0.0000             AG WELLS      =           0.0000

                TOTAL IN =  3326003968.0000                  TOTAL IN =          17.1406

          OUT:                                     OUT:
          ----                                     ----
             STORAGE     =   844736512.0000               STORAGE     =           7.1834
       CONSTANT HEAD     =           0.0000         CONSTANT HEAD     =           0.0000
     HEAD DEP BOUNDS     =    29233482.0000       HEAD DEP BOUNDS     =           0.2890
      STREAM LEAKAGE     =  1023750976.0000        STREAM LEAKAGE     =           9.6690
        UZF RECHARGE     =           0.0000          UZF RECHARGE     =           0.0000
               GW ET     =    17288296.0000                 GW ET     =           0.0000
     SURFACE LEAKAGE     =           0.0000       SURFACE LEAKAGE     =           0.0000
           AG WELLS      =  1410983296.0000             AG WELLS      =           0.0000

               TOTAL OUT =  3325992448.0000                 TOTAL OUT =          17.1413

                IN - OUT =       11520.0000                  IN - OUT =      -7.5150E-04

     PERCENT DISCREPANCY =           0.00         PERCENT DISCREPANCY =          -0.00






         TIME SUMMARY AT END OF TIME STEP   30 IN STRESS PERIOD   39
                    SECONDS     MINUTES      HOURS       DAYS        YEARS
                    -----------------------------------------------------------
   TIME STEP LENGTH  87667.      1461.1      24.352      1.0147     2.77799E-03
 STRESS PERIOD TIME 2.63000E+06  43833.      730.56      30.440     8.33397E-02
         TOTAL TIME 1.00026E+08 1.66710E+06  27785.      1157.7      3.1696    
1
1
                            STRESS PERIOD NO.   40, LENGTH =   2630000.    
                            -----------------------------------------------

                              NUMBER OF TIME STEPS =    30

                               MULTIPLIER FOR DELT =     1.000

                            INITIAL TIME STEP SIZE =   87666.66    

 REUSING NON-PARAMETER GHB CELLS FROM LAST STRESS PERIOD

      2 GHB CELLS

 REUSING STREAM SEGMENT DATA FROM LAST STRESS PERIOD



            AREAL INFILTRATION RATE
 READING ON UNIT   19 WITH FORMAT: (10F4.0)            

            1           2           3           4           5           6           7           8           9          10
 ........................................................................................................................
   1   1.2000E-09   0.000       0.000       0.000       0.000       0.000       0.000       0.000       0.000       0.000    
   2   2.1000E-09  2.0000E-09  8.0000E-10  8.5000E-09   0.000       0.000       0.000       0.000       0.000       0.000    
   3   5.0000E-10  1.1000E-09  8.8000E-09  5.5000E-09   0.000       0.000       0.000       0.000       0.000       0.000    
   4   8.5000E-09  1.1000E-09  1.1000E-09  1.1000E-09  2.0000E-09   0.000       0.000       0.000       0.000       0.000    
   5   8.5000E-09  1.1000E-09  1.1000E-09  1.1000E-09  1.1000E-09   0.000       0.000       0.000       0.000       0.000    
   6   8.5000E-09  5.2000E-09  2.1000E-09  1.1000E-09  1.5000E-09   0.000       0.000       0.000       0.000       0.000    
   7   8.5000E-09  5.2000E-09  2.1000E-09  1.2000E-09  2.0000E-09   0.000       0.000       0.000       0.000       0.000    
   8   5.0000E-10  5.2000E-09  2.1000E-09  1.2000E-09  5.0000E-09   0.000       0.000       0.000       0.000       0.000    
   9   5.0000E-10  5.2000E-09  2.1000E-09  1.2000E-09  5.0000E-09   0.000       0.000       0.000       0.000       0.000    
  10   5.0000E-10  5.2000E-09  2.1000E-09  1.2000E-09  5.8000E-09   0.000       0.000       0.000       0.000       0.000    
  11   1.0000E-10  1.1000E-09  1.1000E-09  1.2000E-09  5.0000E-09   0.000       0.000       0.000       0.000       0.000    
  12   1.1000E-09  1.1000E-09  1.1000E-09  1.1000E-09  2.0000E-09   0.000       0.000       0.000       0.000       0.000    
  13   1.1000E-09  2.2000E-09  2.2000E-09  2.1000E-09  1.0000E-09   0.000       0.000       0.000       0.000       0.000    
  14   2.0000E-10  5.5000E-09  5.5000E-09  5.2000E-09  1.0000E-09   0.000       0.000       0.000       0.000       0.000    
  15    0.000      8.8000E-09  8.8000E-09   0.000       0.000       0.000       0.000       0.000       0.000       0.000    

                  ET RATE =  5.000000E-10

 USING ET EXTINCTION DEPTH FROM PREVIOUS STRESS PERIOD. CURRENT PERIOD IS:      40

 USING EXTINCTION WATER CONTENT FROM PREVIOUS STRESS PERIOD. CURRENT PERIOD IS:      40

 USING AIR ENTRY PRESSURE FROM PREVIOUS STRESS PERIOD. CURRENT PERIOD IS:      40

 USING ROOT PRESSURE HEAD FROM PREVIOUS STRESS PERIOD. CURRENT PERIOD IS:      40

 USING ROOT ACTIVITY FROM PREVIOUS STRESS PERIOD. CURRENT PERIOD IS:      40

 PROCESSING AG STRESS PERIOD DATA

 READING AG STRESS PERIOD DATA

 READING IRRIGATION WELL

 END PROCESSING AG STRESS PERIOD DATA OPTIONS
 
 SOLVING FOR HEAD 
                                                   Max.-Head-Change                         Max.-Flux-Residual
  Residual-Control   Outer-Iter.   Inner-Iter.     Column Row Layer    Maximum-Head-Change  Column Row Layer    Maximum-Flux-Residual          L2-NORM 
          0                 1           2             4    7     1       0.1166562070E-01       4    7    1         0.6102684032E+00      0.1718503292E+01
          0                 2           2             4    7     1      -0.1134133233E-02       4    7    1        -0.6099372669E-01      0.1717968287E+00
          0                 3           1             4    7     1       0.7717201111E-04       4    7    1         0.4266327505E-02      0.1202075170E-01

    ------------------------------------------------
       NWT REQUIRED            3 OUTER ITERATIONS 
       AND A TOTAL OF          5 INNER ITERATIONS.
    ------------------------------------------------

 NO OUTPUT CONTROL FOR STRESS PERIOD   40   TIME STEP    1
 
 SOLVING FOR HEAD 
                                                   Max.-Head-Change                         Max.-Flux-Residual
  Residual-Control   Outer-Iter.   Inner-Iter.     Column Row Layer    Maximum-Head-Change  Column Row Layer    Maximum-Flux-Residual          L2-NORM 
          0                 1           2             4    7     1       0.1158659449E-01       4    7    1         0.6061190471E+00      0.1709543604E+01
          0                 2           2             4    7     1      -0.1126450266E-02       4    7    1        -0.6057901400E-01      0.1709011660E+00
          0                 3           1             4    7     1       0.7664922376E-04       4    7    1         0.4237319534E-02      0.1195809567E-01

    ------------------------------------------------
       NWT REQUIRED            3 OUTER ITERATIONS 
       AND A TOTAL OF          5 INNER ITERATIONS.
    ------------------------------------------------

 NO OUTPUT CONTROL FOR STRESS PERIOD   40   TIME STEP    2
 
 SOLVING FOR HEAD 
                                                   Max.-Head-Change                         Max.-Flux-Residual
  Residual-Control   Outer-Iter.   Inner-Iter.     Column Row Layer    Maximum-Head-Change  Column Row Layer    Maximum-Flux-Residual          L2-NORM 
          0                 1           2             4    7     1       0.1150854959E-01       4    7    1         0.6020216456E+00      0.1700677794E+01
          0                 2           2             4    7     1      -0.1118862702E-02       4    7    1        -0.6016949401E-01      0.1700148800E+00
          0                 3           1             4    7     1       0.7613292823E-04       4    7    1         0.4208674781E-02      0.1189608632E-01

    ------------------------------------------------
       NWT REQUIRED            3 OUTER ITERATIONS 
       AND A TOTAL OF          5 INNER ITERATIONS.
    ------------------------------------------------

 NO OUTPUT CONTROL FOR STRESS PERIOD   40   TIME STEP    3
 
 SOLVING FOR HEAD 
                                                   Max.-Head-Change                         Max.-Flux-Residual
  Residual-Control   Outer-Iter.   Inner-Iter.     Column Row Layer    Maximum-Head-Change  Column Row Layer    Maximum-Flux-Residual          L2-NORM 
          0                 1           2             4    7     1       0.1143132786E-01       4    7    1         0.5979677999E+00      0.1691897989E+01
          0                 2           2             4    7     1      -0.1111355168E-02       4    7    1        -0.5976432734E-01      0.1691372140E+00
          0                 3           1             4    7     1       0.7562207833E-04       4    7    1         0.4180334542E-02      0.1183468878E-01

    ------------------------------------------------
       NWT REQUIRED            3 OUTER ITERATIONS 
       AND A TOTAL OF          5 INNER ITERATIONS.
    ------------------------------------------------

 NO OUTPUT CONTROL FOR STRESS PERIOD   40   TIME STEP    4
 
 SOLVING FOR HEAD 
                                                   Max.-Head-Change                         Max.-Flux-Residual
  Residual-Control   Outer-Iter.   Inner-Iter.     Column Row Layer    Maximum-Head-Change  Column Row Layer    Maximum-Flux-Residual          L2-NORM 
          0                 1           2             4    7     1       0.1135478553E-01       4    7    1         0.5939493104E+00      0.1683205225E+01
          0                 2           2             4    7     1      -0.1103913685E-02       4    7    1        -0.5936269437E-01      0.1682682458E+00
          0                 3           1             4    7     1       0.7511572237E-04       4    7    1         0.4152241454E-02      0.1177390525E-01

    ------------------------------------------------
       NWT REQUIRED            3 OUTER ITERATIONS 
       AND A TOTAL OF          5 INNER ITERATIONS.
    ------------------------------------------------

 NO OUTPUT CONTROL FOR STRESS PERIOD   40   TIME STEP    5
 
 SOLVING FOR HEAD 
                                                   Max.-Head-Change                         Max.-Flux-Residual
  Residual-Control   Outer-Iter.   Inner-Iter.     Column Row Layer    Maximum-Head-Change  Column Row Layer    Maximum-Flux-Residual          L2-NORM 
          0                 1           2             4    7     1       0.1127904904E-01       4    7    1         0.5899733703E+00      0.1674597468E+01
          0                 2           2             4    7     1      -0.1096550547E-02       4    7    1        -0.5896531407E-01      0.1674077814E+00
          0                 3           1             4    7     1       0.7461469783E-04       4    7    1         0.4124445836E-02      0.1171369351E-01

    ------------------------------------------------
       NWT REQUIRED            3 OUTER ITERATIONS 
       AND A TOTAL OF          5 INNER ITERATIONS.
    ------------------------------------------------

 NO OUTPUT CONTROL FOR STRESS PERIOD   40   TIME STEP    6
 
 SOLVING FOR HEAD 
                                                   Max.-Head-Change                         Max.-Flux-Residual
  Residual-Control   Outer-Iter.   Inner-Iter.     Column Row Layer    Maximum-Head-Change  Column Row Layer    Maximum-Flux-Residual          L2-NORM 
          0                 1           2             4    7     1       0.1120410630E-01       4    7    1         0.5860392117E+00      0.1666081964E+01
          0                 2           2             4    7     1      -0.1089264579E-02       4    7    1        -0.5857210971E-01      0.1665565600E+00
          0                 3           1             4    7     1       0.7411892425E-04       4    7    1         0.4096942327E-02      0.1165415036E-01

    ------------------------------------------------
       NWT REQUIRED            3 OUTER ITERATIONS 
       AND A TOTAL OF          5 INNER ITERATIONS.
    ------------------------------------------------

 NO OUTPUT CONTROL FOR STRESS PERIOD   40   TIME STEP    7
 
 SOLVING FOR HEAD 
                                                   Max.-Head-Change                         Max.-Flux-Residual
  Residual-Control   Outer-Iter.   Inner-Iter.     Column Row Layer    Maximum-Head-Change  Column Row Layer    Maximum-Flux-Residual          L2-NORM 
          0                 1           2             4    7     1       0.1112994248E-01       4    7    1         0.5821462075E+00      0.1657641996E+01
          0                 2           2             4    7     1      -0.1082054338E-02       4    7    1        -0.5818301863E-01      0.1657128900E+00
          0                 3           1             4    7     1       0.7362830316E-04       4    7    1         0.4069726515E-02      0.1159512844E-01

    ------------------------------------------------
       NWT REQUIRED            3 OUTER ITERATIONS 
       AND A TOTAL OF          5 INNER ITERATIONS.
    ------------------------------------------------

 NO OUTPUT CONTROL FOR STRESS PERIOD   40   TIME STEP    8
 
 SOLVING FOR HEAD 
                                                   Max.-Head-Change                         Max.-Flux-Residual
  Residual-Control   Outer-Iter.   Inner-Iter.     Column Row Layer    Maximum-Head-Change  Column Row Layer    Maximum-Flux-Residual          L2-NORM 
          0                 1           2             4    7     1       0.1105654509E-01       4    7    1         0.5782935890E+00      0.1649282800E+01
          0                 2           2             4    7     1      -0.1074918609E-02       4    7    1        -0.5779796397E-01      0.1648773139E+00
          0                 3           1             4    7     1       0.7314275256E-04       4    7    1         0.4042793036E-02      0.1153668261E-01

    ------------------------------------------------
       NWT REQUIRED            3 OUTER ITERATIONS 
       AND A TOTAL OF          5 INNER ITERATIONS.
    ------------------------------------------------

 NO OUTPUT CONTROL FOR STRESS PERIOD   40   TIME STEP    9
 
 SOLVING FOR HEAD 
                                                   Max.-Head-Change                         Max.-Flux-Residual
  Residual-Control   Outer-Iter.   Inner-Iter.     Column Row Layer    Maximum-Head-Change  Column Row Layer    Maximum-Flux-Residual          L2-NORM 
          0                 1           2             4    7     1       0.1098390297E-01       4    7    1         0.5744807083E+00      0.1641014144E+01
          0                 2           2             4    7     1      -0.1067856309E-02       4    7    1        -0.5741688097E-01      0.1640507873E+00
          0                 3           1             4    7     1       0.7266219860E-04       4    7    1         0.4016137378E-02      0.1147886095E-01

    ------------------------------------------------
       NWT REQUIRED            3 OUTER ITERATIONS 
       AND A TOTAL OF          5 INNER ITERATIONS.
    ------------------------------------------------

 NO OUTPUT CONTROL FOR STRESS PERIOD   40   TIME STEP   10
 
 SOLVING FOR HEAD 
                                                   Max.-Head-Change                         Max.-Flux-Residual
  Residual-Control   Outer-Iter.   Inner-Iter.     Column Row Layer    Maximum-Head-Change  Column Row Layer    Maximum-Flux-Residual          L2-NORM 
          0                 1           2             4    7     1       0.1091187262E-01       4    7    1         0.5706996629E+00      0.1632819621E+01
          0                 2           2             4    7     1      -0.1060853484E-02       4    7    1        -0.5703897979E-01      0.1632316594E+00
          0                 3           1             4    7     1       0.7218569141E-04       4    7    1         0.3989704265E-02      0.1142154818E-01

    ------------------------------------------------
       NWT REQUIRED            3 OUTER ITERATIONS 
       AND A TOTAL OF          5 INNER ITERATIONS.
    ------------------------------------------------

 NO OUTPUT CONTROL FOR STRESS PERIOD   40   TIME STEP   11
 
 SOLVING FOR HEAD 
                                                   Max.-Head-Change                         Max.-Flux-Residual
  Residual-Control   Outer-Iter.   Inner-Iter.     Column Row Layer    Maximum-Head-Change  Column Row Layer    Maximum-Flux-Residual          L2-NORM 
          0                 1           2             4    7     1       0.1084071590E-01       4    7    1         0.5669649854E+00      0.1624709642E+01
          0                 2           2             4    7     1      -0.1053935595E-02       4    7    1        -0.5666571294E-01      0.1624210078E+00
          0                 3           1             4    7     1       0.7171496365E-04       4    7    1         0.3963595311E-02      0.1136484337E-01

    ------------------------------------------------
       NWT REQUIRED            3 OUTER ITERATIONS 
       AND A TOTAL OF          5 INNER ITERATIONS.
    ------------------------------------------------

 NO OUTPUT CONTROL FOR STRESS PERIOD   40   TIME STEP   12
 
 SOLVING FOR HEAD 
                                                   Max.-Head-Change                         Max.-Flux-Residual
  Residual-Control   Outer-Iter.   Inner-Iter.     Column Row Layer    Maximum-Head-Change  Column Row Layer    Maximum-Flux-Residual          L2-NORM 
          0                 1           2             4    7     1       0.1077014614E-01       4    7    1         0.5632609549E+00      0.1616674970E+01
          0                 2           2             4    7     1      -0.1047074772E-02       4    7    1        -0.5629550918E-01      0.1616178849E+00
          0                 3           1             4    7     1       0.7124811924E-04       4    7    1         0.3937700634E-02      0.1130865561E-01

    ------------------------------------------------
       NWT REQUIRED            3 OUTER ITERATIONS 
       AND A TOTAL OF          5 INNER ITERATIONS.
    ------------------------------------------------

 NO OUTPUT CONTROL FOR STRESS PERIOD   40   TIME STEP   13
 
 SOLVING FOR HEAD 
                                                   Max.-Head-Change                         Max.-Flux-Residual
  Residual-Control   Outer-Iter.   Inner-Iter.     Column Row Layer    Maximum-Head-Change  Column Row Layer    Maximum-Flux-Residual          L2-NORM 
          0                 1           2             4    7     1       0.1070042867E-01       4    7    1         0.5596020071E+00      0.1608721506E+01
          0                 2           2             4    7     1      -0.1040296809E-02       4    7    1        -0.5592981128E-01      0.1608228805E+00
          0                 3           1             4    7     1       0.7078691261E-04       4    7    1         0.3912121109E-02      0.1125303674E-01

    ------------------------------------------------
       NWT REQUIRED            3 OUTER ITERATIONS 
       AND A TOTAL OF          5 INNER ITERATIONS.
    ------------------------------------------------

 NO OUTPUT CONTROL FOR STRESS PERIOD   40   TIME STEP   14
 
 SOLVING FOR HEAD 
                                                   Max.-Head-Change                         Max.-Flux-Residual
  Residual-Control   Outer-Iter.   Inner-Iter.     Column Row Layer    Maximum-Head-Change  Column Row Layer    Maximum-Flux-Residual          L2-NORM 
          0                 1           2             4    7     1       0.1063127369E-01       4    7    1         0.5559725988E+00      0.1600841660E+01
          0                 2           2             4    7     1      -0.1033573531E-02       4    7    1        -0.5556706576E-01      0.1600352452E+00
          0                 3           1             4    7     1       0.7032942708E-04       4    7    1         0.3886748096E-02      0.1119794529E-01

    ------------------------------------------------
       NWT REQUIRED            3 OUTER ITERATIONS 
       AND A TOTAL OF          5 INNER ITERATIONS.
    ------------------------------------------------

 NO OUTPUT CONTROL FOR STRESS PERIOD   40   TIME STEP   15
 
 SOLVING FOR HEAD 
                                                   Max.-Head-Change                         Max.-Flux-Residual
  Residual-Control   Outer-Iter.   Inner-Iter.     Column Row Layer    Maximum-Head-Change  Column Row Layer    Maximum-Flux-Residual          L2-NORM 
          0                 1           2             4    7     1       0.1056294995E-01       4    7    1         0.5523870053E+00      0.1593036662E+01
          0                 2           2             4    7     1      -0.1026931068E-02       4    7    1        -0.5520869941E-01      0.1592550883E+00
          0                 3           1             4    7     1       0.6987744101E-04       4    7    1         0.3861681411E-02      0.1114336886E-01

    ------------------------------------------------
       NWT REQUIRED            3 OUTER ITERATIONS 
       AND A TOTAL OF          5 INNER ITERATIONS.
    ------------------------------------------------

 NO OUTPUT CONTROL FOR STRESS PERIOD   40   TIME STEP   16
 
 SOLVING FOR HEAD 
                                                   Max.-Head-Change                         Max.-Flux-Residual
  Residual-Control   Outer-Iter.   Inner-Iter.     Column Row Layer    Maximum-Head-Change  Column Row Layer    Maximum-Flux-Residual          L2-NORM 
          0                 1           2             4    7     1       0.1049517051E-01       4    7    1         0.5488298593E+00      0.1585308525E+01
          0                 2           2             4    7     1      -0.1020341520E-02       4    7    1        -0.5485317628E-01      0.1584826234E+00
          0                 3           1             4    7     1       0.6942905498E-04       4    7    1         0.3836813582E-02      0.1108932990E-01

    ------------------------------------------------
       NWT REQUIRED            3 OUTER ITERATIONS 
       AND A TOTAL OF          5 INNER ITERATIONS.
    ------------------------------------------------

 NO OUTPUT CONTROL FOR STRESS PERIOD   40   TIME STEP   17
 
 SOLVING FOR HEAD 
                                                   Max.-Head-Change                         Max.-Flux-Residual
  Residual-Control   Outer-Iter.   Inner-Iter.     Column Row Layer    Maximum-Head-Change  Column Row Layer    Maximum-Flux-Residual          L2-NORM 
          0                 1           2             4    7     1       0.1042806567E-01       4    7    1         0.5453082591E+00      0.1577648193E+01
          0                 2           2             4    7     1      -0.1013817559E-02       4    7    1        -0.5450120582E-01      0.1577169254E+00
          0                 3           1             4    7     1       0.6898513201E-04       4    7    1         0.3812194250E-02      0.1103576164E-01

    ------------------------------------------------
       NWT REQUIRED            3 OUTER ITERATIONS 
       AND A TOTAL OF          5 INNER ITERATIONS.
    ------------------------------------------------

 NO OUTPUT CONTROL FOR STRESS PERIOD   40   TIME STEP   18
 
 SOLVING FOR HEAD 
                                                   Max.-Head-Change                         Max.-Flux-Residual
  Residual-Control   Outer-Iter.   Inner-Iter.     Column Row Layer    Maximum-Head-Change  Column Row Layer    Maximum-Flux-Residual          L2-NORM 
          0                 1           2             4    7     1       0.1036176016E-01       4    7    1         0.5418289625E+00      0.1570072073E+01
          0                 2           2             4    7     1      -0.1007371309E-02       4    7    1        -0.5415346348E-01      0.1569611944E+00
          0                 3           1             4    7     1       0.6854649703E-04       4    7    1         0.3787870662E-02      0.1098289234E-01

    ------------------------------------------------
       NWT REQUIRED            3 OUTER ITERATIONS 
       AND A TOTAL OF          5 INNER ITERATIONS.
    ------------------------------------------------

 NO OUTPUT CONTROL FOR STRESS PERIOD   40   TIME STEP   19
 
 SOLVING FOR HEAD 
                                                   Max.-Head-Change                         Max.-Flux-Residual
  Residual-Control   Outer-Iter.   Inner-Iter.     Column Row Layer    Maximum-Head-Change  Column Row Layer    Maximum-Flux-Residual          L2-NORM 
          0                 1           2             4    7     1       0.1029597168E-01       4    7    1         0.5383764576E+00      0.1562559188E+01
          0                 2           2             4    7     1      -0.1000975325E-02       4    7    1        -0.5380839887E-01      0.1562087135E+00
          0                 3           1             4    7     1       0.6811128234E-04       4    7    1         0.3763734387E-02      0.1093024780E-01

    ------------------------------------------------
       NWT REQUIRED            3 OUTER ITERATIONS 
       AND A TOTAL OF          5 INNER ITERATIONS.
    ------------------------------------------------

 NO OUTPUT CONTROL FOR STRESS PERIOD   40   TIME STEP   20
 
 SOLVING FOR HEAD 
                                                   Max.-Head-Change                         Max.-Flux-Residual
  Residual-Control   Outer-Iter.   Inner-Iter.     Column Row Layer    Maximum-Head-Change  Column Row Layer    Maximum-Flux-Residual          L2-NORM 
          0                 1           2             4    7     1       0.1023096121E-01       4    7    1         0.5349654119E+00      0.1555115917E+01
          0                 2           2             4    7     1      -0.9946549800E-03       4    7    1        -0.5346747801E-01      0.1554647169E+00
          0                 3           1             4    7     1       0.6768121446E-04       4    7    1         0.3739887954E-02      0.1087819814E-01

    ------------------------------------------------
       NWT REQUIRED            3 OUTER ITERATIONS 
       AND A TOTAL OF          5 INNER ITERATIONS.
    ------------------------------------------------

 NO OUTPUT CONTROL FOR STRESS PERIOD   40   TIME STEP   21
 
 SOLVING FOR HEAD 
                                                   Max.-Head-Change                         Max.-Flux-Residual
  Residual-Control   Outer-Iter.   Inner-Iter.     Column Row Layer    Maximum-Head-Change  Column Row Layer    Maximum-Flux-Residual          L2-NORM 
          0                 1           2             4    7     1       0.1016644695E-01       4    7    1         0.5315800519E+00      0.1547738081E+01
          0                 2           2             4    7     1      -0.9883828767E-03       4    7    1        -0.5312912432E-01      0.1547272750E+00
          0                 3           1             4    7     1       0.6725442913E-04       4    7    1         0.3716221087E-02      0.1082660720E-01

    ------------------------------------------------
       NWT REQUIRED            3 OUTER ITERATIONS 
       AND A TOTAL OF          5 INNER ITERATIONS.
    ------------------------------------------------

 NO OUTPUT CONTROL FOR STRESS PERIOD   40   TIME STEP   22
 
 SOLVING FOR HEAD 
                                                   Max.-Head-Change                         Max.-Flux-Residual
  Residual-Control   Outer-Iter.   Inner-Iter.     Column Row Layer    Maximum-Head-Change  Column Row Layer    Maximum-Flux-Residual          L2-NORM 
          0                 1           2             4    7     1       0.1010256197E-01       4    7    1         0.5282277461E+00      0.1540432320E+01
          0                 2           2             4    7     1      -0.9821719524E-03       4    7    1        -0.5279407429E-01      0.1539970381E+00
          0                 3           1             4    7     1       0.6683180675E-04       4    7    1         0.3692785302E-02      0.1077551557E-01

    ------------------------------------------------
       NWT REQUIRED            3 OUTER ITERATIONS 
       AND A TOTAL OF          5 INNER ITERATIONS.
    ------------------------------------------------

 NO OUTPUT CONTROL FOR STRESS PERIOD   40   TIME STEP   23
 
 SOLVING FOR HEAD 
                                                   Max.-Head-Change                         Max.-Flux-Residual
  Residual-Control   Outer-Iter.   Inner-Iter.     Column Row Layer    Maximum-Head-Change  Column Row Layer    Maximum-Flux-Residual          L2-NORM 
          0                 1           2             4    7     1       0.1003943029E-01       4    7    1         0.5249153940E+00      0.1533199305E+01
          0                 2           2             4    7     1      -0.9760342650E-03       4    7    1        -0.5246301750E-01      0.1532740676E+00
          0                 3           1             4    7     1       0.6641416801E-04       4    7    1         0.3669628834E-02      0.1072493216E-01

    ------------------------------------------------
       NWT REQUIRED            3 OUTER ITERATIONS 
       AND A TOTAL OF          5 INNER ITERATIONS.
    ------------------------------------------------

 NO OUTPUT CONTROL FOR STRESS PERIOD   40   TIME STEP   24
 
 SOLVING FOR HEAD 
                                                   Max.-Head-Change                         Max.-Flux-Residual
  Residual-Control   Outer-Iter.   Inner-Iter.     Column Row Layer    Maximum-Head-Change  Column Row Layer    Maximum-Flux-Residual          L2-NORM 
          0                 1           2             4    7     1       0.9976899591E-02       4    7    1         0.5216347729E+00      0.1526025405E+01
          0                 2           2             4    7     1      -0.9699550054E-03       4    7    1        -0.5213513214E-01      0.1525570174E+00
          0                 3           1             4    7     1       0.6600050467E-04       4    7    1         0.3646694199E-02      0.1067478481E-01

    ------------------------------------------------
       NWT REQUIRED            3 OUTER ITERATIONS 
       AND A TOTAL OF          5 INNER ITERATIONS.
    ------------------------------------------------

 NO OUTPUT CONTROL FOR STRESS PERIOD   40   TIME STEP   25
 
 SOLVING FOR HEAD 
                                                   Max.-Head-Change                         Max.-Flux-Residual
  Residual-Control   Outer-Iter.   Inner-Iter.     Column Row Layer    Maximum-Head-Change  Column Row Layer    Maximum-Flux-Residual          L2-NORM 
          0                 1           2             4    7     1       0.9914831055E-02       4    7    1         0.5183779843E+00      0.1518925372E+01
          0                 2           2             4    7     1      -0.9639206771E-03       4    7    1        -0.5180962872E-01      0.1518473573E+00
          0                 3           1             4    7     1       0.6558989926E-04       4    7    1         0.3623926179E-02      0.1062513823E-01

    ------------------------------------------------
       NWT REQUIRED            3 OUTER ITERATIONS 
       AND A TOTAL OF          5 INNER ITERATIONS.
    ------------------------------------------------

 NO OUTPUT CONTROL FOR STRESS PERIOD   40   TIME STEP   26
 
 SOLVING FOR HEAD 
                                                   Max.-Head-Change                         Max.-Flux-Residual
  Residual-Control   Outer-Iter.   Inner-Iter.     Column Row Layer    Maximum-Head-Change  Column Row Layer    Maximum-Flux-Residual          L2-NORM 
          0                 1           2             4    7     1       0.9853489640E-02       4    7    1         0.5151598121E+00      0.1511886399E+01
          0                 2           2             4    7     1      -0.9579570406E-03       4    7    1        -0.5148798494E-01      0.1511437854E+00
          0                 3           1             4    7     1       0.6518410329E-04       4    7    1         0.3601428113E-02      0.1057590126E-01

    ------------------------------------------------
       NWT REQUIRED            3 OUTER ITERATIONS 
       AND A TOTAL OF          5 INNER ITERATIONS.
    ------------------------------------------------

 NO OUTPUT CONTROL FOR STRESS PERIOD   40   TIME STEP   27
 
 SOLVING FOR HEAD 
                                                   Max.-Head-Change                         Max.-Flux-Residual
  Residual-Control   Outer-Iter.   Inner-Iter.     Column Row Layer    Maximum-Head-Change  Column Row Layer    Maximum-Flux-Residual          L2-NORM 
          0                 1           2             4    7     1       0.9792726981E-02       4    7    1         0.5119720129E+00      0.1504914428E+01
          0                 2           2             4    7     1      -0.9520496705E-03       4    7    1        -0.5116937680E-01      0.1504469131E+00
          0                 3           1             4    7     1       0.6478213611E-04       4    7    1         0.3579142375E-02      0.1052716330E-01

    ------------------------------------------------
       NWT REQUIRED            3 OUTER ITERATIONS 
       AND A TOTAL OF          5 INNER ITERATIONS.
    ------------------------------------------------

 NO OUTPUT CONTROL FOR STRESS PERIOD   40   TIME STEP   28
 
 SOLVING FOR HEAD 
                                                   Max.-Head-Change                         Max.-Flux-Residual
  Residual-Control   Outer-Iter.   Inner-Iter.     Column Row Layer    Maximum-Head-Change  Column Row Layer    Maximum-Flux-Residual          L2-NORM 
          0                 1           2             4    7     1       0.9732531635E-02       4    7    1         0.5088142211E+00      0.1498004433E+01
          0                 2           2             4    7     1      -0.9461974558E-03       4    7    1        -0.5085376782E-01      0.1497562526E+00
          0                 3           1             4    7     1       0.6438392232E-04       4    7    1         0.3557066439E-02      0.1047884825E-01

    ------------------------------------------------
       NWT REQUIRED            3 OUTER ITERATIONS 
       AND A TOTAL OF          5 INNER ITERATIONS.
    ------------------------------------------------

 NO OUTPUT CONTROL FOR STRESS PERIOD   40   TIME STEP   29
 
 SOLVING FOR HEAD 
                                                   Max.-Head-Change                         Max.-Flux-Residual
  Residual-Control   Outer-Iter.   Inner-Iter.     Column Row Layer    Maximum-Head-Change  Column Row Layer    Maximum-Flux-Residual          L2-NORM 
          0                 1           2             4    7     1       0.9672901278E-02       4    7    1         0.5056858435E+00      0.1491165482E+01
          0                 2           2             4    7     1      -0.9404001693E-03       4    7    1        -0.5054109867E-01      0.1490726701E+00
          0                 3           1             4    7     1       0.6398944596E-04       4    7    1         0.3535196143E-02      0.1043101839E-01

    ------------------------------------------------
       NWT REQUIRED            3 OUTER ITERATIONS 
       AND A TOTAL OF          5 INNER ITERATIONS.
    ------------------------------------------------

 NO OUTPUT CONTROL FOR STRESS PERIOD   40   TIME STEP   30



 STREAM LISTING     PERIOD     40   STEP       30

 LAYER ROW COL. STREAM  RCH.  FLOW INTO     FLOW TO   FLOW OUT OF   OVRLND.     DIRECT     STREAM       STREAM     STREAM     STREAM   STREAMBED  STREAMBED
                SEG.NO.  NO.  STRM. RCH.    AQUIFER    STRM. RCH.    RUNOFF     PRECIP       ET          HEAD       DEPTH      WIDTH   CONDCTNC.   GRADIENT

   1    1    1     1     1    1.9000E+01  2.1427E-01   1.8786E+01  0.000E+00  0.000E+00  0.000E+00  1.09413E+03  1.082E+00  1.166E+01  5.249E-02  1.361E+00
   1    2    2     1     2    1.8786E+01  3.3054E-01   1.8455E+01  0.000E+00  0.000E+00  0.000E+00  1.08914E+03  1.077E+00  1.158E+01  8.107E-02  1.359E+00
   1    3    3     1     3    1.8455E+01  2.8064E-01   1.8175E+01  0.000E+00  0.000E+00  0.000E+00  1.08349E+03  1.072E+00  1.149E+01  6.892E-02  1.357E+00
   1    3    4     1     4    1.8175E+01  2.5740E-01   1.7917E+01  0.000E+00  0.000E+00  0.000E+00  1.07848E+03  1.068E+00  1.140E+01  6.328E-02  1.356E+00
   1    4    5     2     1    1.5917E+01  3.0542E-01   1.5612E+01  0.000E+00  0.000E+00  0.000E+00  1.07285E+03  9.157E-01  1.200E+01  7.800E-02  1.305E+00
   1    5    6     2     2    1.5612E+01  2.3438E-01   1.5377E+01  0.000E+00  0.000E+00  0.000E+00  1.06742E+03  9.063E-01  1.200E+01  6.000E-02  1.302E+00
   1    6    6     2     3    1.5377E+01  2.3388E-01   1.5143E+01  0.000E+00  0.000E+00  0.000E+00  1.06269E+03  8.980E-01  1.200E+01  6.000E-02  1.299E+00
   1    7    6     2     4    1.5143E+01  2.3338E-01   1.4910E+01  0.000E+00  0.000E+00  0.000E+00  1.05797E+03  8.897E-01  1.200E+01  6.000E-02  1.297E+00
   1    8    6     2     5    1.4910E+01  2.3289E-01   1.4677E+01  0.000E+00  0.000E+00  0.000E+00  1.05324E+03  8.814E-01  1.200E+01  6.000E-02  1.294E+00
   1    3    5     3     1    2.0000E+00  2.8252E-01   1.7175E+00  0.000E+00  0.000E+00  0.000E+00  1.07555E+03  1.909E+00  9.636E+00  7.227E-02  1.955E+00
   1    3    6     3     2    1.7175E+00  2.4905E-01   1.4684E+00  0.000E+00  0.000E+00  0.000E+00  1.07264E+03  1.727E+00  8.909E+00  6.682E-02  1.864E+00
   1    3    7     3     3    1.4684E+00  1.9718E-01   1.2712E+00  0.000E+00  0.000E+00  0.000E+00  1.06987E+03  1.555E+00  8.218E+00  5.547E-02  1.777E+00
   1    4    8     3     4    1.2712E+00  2.2567E-01   1.0456E+00  0.000E+00  0.000E+00  0.000E+00  1.06682E+03  1.364E+00  7.455E+00  6.709E-02  1.682E+00
   1    5    8     3     5    1.0456E+00  1.5790E-01   8.8768E-01  0.000E+00  0.000E+00  0.000E+00  1.06362E+03  1.164E+00  6.655E+00  4.991E-02  1.582E+00
   1    6    8     3     6    8.8768E-01  5.5980E-02   8.3170E-01  0.000E+00  0.000E+00  0.000E+00  1.06158E+03  1.036E+00  6.145E+00  1.844E-02  1.518E+00
   1    5   10     4     1    1.0000E+01  9.0919E-02   9.9091E+00  0.000E+00  0.000E+00  0.000E+00  1.07836E+03  6.368E-01  1.000E+01  2.500E-02  1.212E+00
   1    5    9     4     2    9.9091E+00  1.8158E-01   9.7275E+00  0.000E+00  0.000E+00  0.000E+00  1.07154E+03  6.315E-01  1.000E+01  5.000E-02  1.211E+00
   1    6    8     4     3    9.7275E+00  1.2689E-01   9.6006E+00  0.000E+00  0.000E+00  0.000E+00  1.06381E+03  6.256E-01  1.000E+01  3.500E-02  1.209E+00
   1    6    8     5     1    1.0432E+01  2.2686E-01   1.0205E+01  0.000E+00  0.000E+00  0.000E+00  1.05868E+03  6.790E-01  1.542E+01  6.166E-02  1.226E+00
   1    7    7     5     2    1.0205E+01  2.7894E-01   9.9265E+00  0.000E+00  0.000E+00  0.000E+00  1.05417E+03  6.732E-01  1.519E+01  7.594E-02  1.224E+00
   1    8    7     5     3    9.9265E+00  1.9221E-01   9.7343E+00  0.000E+00  0.000E+00  0.000E+00  1.04992E+03  6.676E-01  1.497E+01  5.241E-02  1.223E+00
   1    8    6     5     4    9.7343E+00  1.3577E-01   9.5985E+00  0.000E+00  0.000E+00  0.000E+00  1.04691E+03  6.637E-01  1.482E+01  3.706E-02  1.221E+00
   1    9    6     6     1    2.4276E+01  2.5176E-01   2.4024E+01  0.000E+00  0.000E+00  0.000E+00  1.04392E+03  1.196E+00  1.200E+01  6.000E-02  1.399E+00
   1   10    7     6     2    2.4024E+01  2.5131E-01   2.3773E+01  0.000E+00  0.000E+00  0.000E+00  1.03937E+03  1.188E+00  1.200E+01  6.000E-02  1.396E+00
   1   11    7     6     3    2.3773E+01  2.5086E-01   2.3522E+01  0.000E+00  0.000E+00  0.000E+00  1.03482E+03  1.181E+00  1.200E+01  6.000E-02  1.394E+00
   1   12    7     6     4    2.3522E+01  2.5041E-01   2.3271E+01  0.000E+00  0.000E+00  0.000E+00  1.03026E+03  1.173E+00  1.200E+01  6.000E-02  1.391E+00
   1   13    7     6     5    2.3271E+01  1.0077E-02   2.3261E+01  0.000E+00  0.000E+00  0.000E+00  1.02708E+03  1.170E+00  1.200E+01  2.400E-02  1.400E-01
   1   14    9     7     1    1.5000E+02  1.3655E+00   1.4863E+02  0.000E+00  0.000E+00  0.000E+00  1.03987E+03  2.288E+00  5.529E+01  5.593E-01  8.138E-01
   1   13    8     7     2    1.4863E+02  1.9550E+00   1.4668E+02  0.000E+00  0.000E+00  0.000E+00  1.03478E+03  2.279E+00  5.525E+01  6.147E-01  1.060E+00
   1   13    7     7     3    1.4668E+02  1.6917E+00   1.4499E+02  0.000E+00  0.000E+00  0.000E+00  1.02969E+03  2.269E+00  5.521E+01  5.584E-01  1.010E+00
   1   13    6     8     1    1.6825E+02  1.1305E+00   1.6712E+02  0.000E+00  0.000E+00  0.000E+00  1.02481E+03  2.937E+00  4.259E+01  4.340E-01  8.683E-01
   1   13    5     8     2    1.6712E+02  3.7068E-01   1.6675E+02  0.000E+00  0.000E+00  0.000E+00  1.01856E+03  2.932E+00  4.252E+01  4.332E-01  2.852E-01
   1   13    4     8     3    1.6675E+02 -1.8064E+00   1.6855E+02  0.000E+00  0.000E+00  0.000E+00  1.01231E+03  2.937E+00  4.258E+01  4.339E+00 -1.388E-01
   1   13    3     8     4    1.6855E+02 -3.3620E+00   1.7192E+02  0.000E+00  0.000E+00  0.000E+00  1.00608E+03  2.954E+00  4.283E+01  4.364E+00 -2.568E-01
   1   13    2     8     5    1.7192E+02 -2.5065E+00   1.7442E+02  0.000E+00  0.000E+00  0.000E+00  9.99848E+02  2.973E+00  4.310E+01  4.393E+00 -1.902E-01
   1   13    1     8     6    1.7442E+02 -1.9633E+00   1.7639E+02  0.000E+00  0.000E+00  0.000E+00  9.94862E+02  2.987E+00  4.331E+01  2.648E+00 -2.471E-01





UNSATURATED ZONE PACKAGE VOLUMETRIC BUDGET FOR  TIME STEP    30 STRESS PERIOD   40
  ------------------------------------------------------------------------------



     CUMULATIVE VOLUMES      L**3       RATES FOR THIS TIME STEP      L**3/T
     ------------------                 ------------------------

           IN:                                      IN:
           ---                                      ---
        INFILTRATION =  1863134324.2004          INFILTRATION =           4.4075

          OUT:                                     OUT:
          ----                                     ----
              UZF ET =  1506554668.5868                UZF ET =           0.7253
        UZF RECHARGE =   222221656.8038          UZF RECHARGE =           0.0857

            IN - OUT =   134357998.8098              IN - OUT =           3.5964

          STORAGE:                                 STORAGE:
          --------                                 --------
      STORAGE CHANGE =   134359502.9285        STORAGE CHANGE =           3.5964

 PERCENT DISCREPANCY IS DIFFERENCE BETWEEN IN-OUT MINUS CHANGE IN STORAGE
 DIVIDED BY THE AVERAGE OF IN AND OUT TIMES 100

 PERCENT DISCREPANCY =          -0.00     PERCENT DISCREPANCY =           0.00






1
  VOLUMETRIC BUDGET FOR AGRICULTURAL FIELDS AT TIME STEP   30, STRESS PERIOD  40
  ------------------------------------------------------------------------------

     CUMULATIVE VOLUMES      L**3       RATES FOR THIS TIME STEP      L**3/T
     ------------------                 ------------------------

           IN:                                      IN:
           ---                                      ---
               AG WELLS  =  1410983296.0000                 AG WELLS  =           0.0000
      DIVERSION SEGMENTS =           0.0000        DIVERSION SEGMENTS =           0.0000
           GW IRRIGATION =           0.0000             GW IRRIGATION =           0.0000
           SW IRRIGATION =           0.0000             SW IRRIGATION =           0.0000
        SYSTEM LOSSES GW =           0.0000          SYSTEM LOSSES GW =           0.0000
        SYSTEM LOSSES SW =           0.0000          SYSTEM LOSSES SW =           0.0000

                TOTAL IN =  1410983296.0000                  TOTAL IN =           0.0000

          OUT:                                     OUT:
          ----                                     ----
               AG WELLS  =           0.0000                 AG WELLS  =           0.0000
      DIVERSION SEGMENTS =           0.0000        DIVERSION SEGMENTS =           0.0000
           GW IRRIGATION =  1410983296.0000             GW IRRIGATION =           0.0000
           SW IRRIGATION =           0.0000             SW IRRIGATION =           0.0000
        SYSTEM LOSSES GW =           0.0000          SYSTEM LOSSES GW =           0.0000
        SYSTEM LOSSES SW =           0.0000          SYSTEM LOSSES SW =           0.0000

               TOTAL OUT =  1410983296.0000                 TOTAL OUT =           0.0000

                IN - OUT =           0.0000                  IN - OUT =           0.0000

     PERCENT DISCREPANCY =           0.00         PERCENT DISCREPANCY =           0.00



1
  VOLUMETRIC BUDGET FOR ENTIRE MODEL AT END OF TIME STEP   30, STRESS PERIOD  40
  ------------------------------------------------------------------------------

     CUMULATIVE VOLUMES      L**3       RATES FOR THIS TIME STEP      L**3/T
     ------------------                 ------------------------

           IN:                                      IN:
           ---                                      ---
             STORAGE     =  1861316608.0000               STORAGE     =           3.8548
       CONSTANT HEAD     =           0.0000         CONSTANT HEAD     =           0.0000
     HEAD DEP BOUNDS     =    29358262.0000       HEAD DEP BOUNDS     =           0.2878
      STREAM LEAKAGE     =  1257254144.0000        STREAM LEAKAGE     =          12.2520
        UZF RECHARGE     =   222221536.0000          UZF RECHARGE     =       8.5743E-02
               GW ET     =           0.0000                 GW ET     =           0.0000
     SURFACE LEAKAGE     =           0.0000       SURFACE LEAKAGE     =           0.0000
           AG WELLS      =           0.0000             AG WELLS      =           0.0000

                TOTAL IN =  3370150656.0000                  TOTAL IN =          16.4803

          OUT:                                     OUT:
          ----                                     ----
             STORAGE     =   862737856.0000               STORAGE     =           6.5539
       CONSTANT HEAD     =           0.0000         CONSTANT HEAD     =           0.0000
     HEAD DEP BOUNDS     =    29993402.0000       HEAD DEP BOUNDS     =           0.2889
      STREAM LEAKAGE     =  1049138304.0000        STREAM LEAKAGE     =           9.6383
        UZF RECHARGE     =           0.0000          UZF RECHARGE     =           0.0000
               GW ET     =    17288296.0000                 GW ET     =           0.0000
     SURFACE LEAKAGE     =           0.0000       SURFACE LEAKAGE     =           0.0000
           AG WELLS      =  1410983296.0000             AG WELLS      =           0.0000

               TOTAL OUT =  3370141184.0000                 TOTAL OUT =          16.4811

                IN - OUT =        9472.0000                  IN - OUT =      -7.7057E-04

     PERCENT DISCREPANCY =           0.00         PERCENT DISCREPANCY =          -0.00






         TIME SUMMARY AT END OF TIME STEP   30 IN STRESS PERIOD   40
                    SECONDS     MINUTES      HOURS       DAYS        YEARS
                    -----------------------------------------------------------
   TIME STEP LENGTH  87667.      1461.1      24.352      1.0147     2.77799E-03
 STRESS PERIOD TIME 2.63000E+06  43833.      730.56      30.440     8.33397E-02
         TOTAL TIME 1.02656E+08 1.71093E+06  28515.      1188.1      3.2530    
1
1
                            STRESS PERIOD NO.   41, LENGTH =   2630000.    
                            -----------------------------------------------

                              NUMBER OF TIME STEPS =    30

                               MULTIPLIER FOR DELT =     1.000

                            INITIAL TIME STEP SIZE =   87666.66    

 REUSING NON-PARAMETER GHB CELLS FROM LAST STRESS PERIOD

      2 GHB CELLS

 REUSING STREAM SEGMENT DATA FROM LAST STRESS PERIOD



            AREAL INFILTRATION RATE
 READING ON UNIT   19 WITH FORMAT: (10F4.0)            

            1           2           3           4           5           6           7           8           9          10
 ........................................................................................................................
   1   1.2000E-09   0.000       0.000       0.000       0.000       0.000       0.000       0.000       0.000       0.000    
   2   2.1000E-09  2.0000E-09  8.0000E-10  8.5000E-09   0.000       0.000       0.000       0.000       0.000       0.000    
   3   5.0000E-10  1.1000E-09  8.8000E-09  5.5000E-09   0.000       0.000       0.000       0.000       0.000       0.000    
   4   8.5000E-09  1.1000E-09  1.1000E-09  1.1000E-09  2.0000E-09   0.000       0.000       0.000       0.000       0.000    
   5   8.5000E-09  1.1000E-09  1.1000E-09  1.1000E-09  1.1000E-09   0.000       0.000       0.000       0.000       0.000    
   6   8.5000E-09  5.2000E-09  2.1000E-09  1.1000E-09  1.5000E-09   0.000       0.000       0.000       0.000       0.000    
   7   8.5000E-09  5.2000E-09  2.1000E-09  1.2000E-09  2.0000E-09   0.000       0.000       0.000       0.000       0.000    
   8   5.0000E-10  5.2000E-09  2.1000E-09  1.2000E-09  5.0000E-09   0.000       0.000       0.000       0.000       0.000    
   9   5.0000E-10  5.2000E-09  2.1000E-09  1.2000E-09  5.0000E-09   0.000       0.000       0.000       0.000       0.000    
  10   5.0000E-10  5.2000E-09  2.1000E-09  1.2000E-09  5.8000E-09   0.000       0.000       0.000       0.000       0.000    
  11   1.0000E-10  1.1000E-09  1.1000E-09  1.2000E-09  5.0000E-09   0.000       0.000       0.000       0.000       0.000    
  12   1.1000E-09  1.1000E-09  1.1000E-09  1.1000E-09  2.0000E-09   0.000       0.000       0.000       0.000       0.000    
  13   1.1000E-09  2.2000E-09  2.2000E-09  2.1000E-09  1.0000E-09   0.000       0.000       0.000       0.000       0.000    
  14   2.0000E-10  5.5000E-09  5.5000E-09  5.2000E-09  1.0000E-09   0.000       0.000       0.000       0.000       0.000    
  15    0.000      8.8000E-09  8.8000E-09   0.000       0.000       0.000       0.000       0.000       0.000       0.000    

                  ET RATE =  2.500000E-08

 USING ET EXTINCTION DEPTH FROM PREVIOUS STRESS PERIOD. CURRENT PERIOD IS:      41

 USING EXTINCTION WATER CONTENT FROM PREVIOUS STRESS PERIOD. CURRENT PERIOD IS:      41

 USING AIR ENTRY PRESSURE FROM PREVIOUS STRESS PERIOD. CURRENT PERIOD IS:      41

 USING ROOT PRESSURE HEAD FROM PREVIOUS STRESS PERIOD. CURRENT PERIOD IS:      41

 USING ROOT ACTIVITY FROM PREVIOUS STRESS PERIOD. CURRENT PERIOD IS:      41

 PROCESSING AG STRESS PERIOD DATA

 READING AG STRESS PERIOD DATA

 READING IRRIGATION WELL

 END PROCESSING AG STRESS PERIOD DATA OPTIONS
 
 SOLVING FOR HEAD 
                                                   Max.-Head-Change                         Max.-Flux-Residual
  Residual-Control   Outer-Iter.   Inner-Iter.     Column Row Layer    Maximum-Head-Change  Column Row Layer    Maximum-Flux-Residual          L2-NORM 
          0                 1           2             4    7     1       0.9613803767E-02       4    7    1         0.5025855603E+00      0.1484379831E+01
          0                 2           2             4    7     1      -0.9346763680E-03       4    7    1        -0.5023243687E-01      0.1483952069E+00
          0                 3           1             4    7     1       0.6357887795E-04       4    7    1         0.3512406743E-02      0.1038284828E-01

    ------------------------------------------------
       NWT REQUIRED            3 OUTER ITERATIONS 
       AND A TOTAL OF          5 INNER ITERATIONS.
    ------------------------------------------------

 NO OUTPUT CONTROL FOR STRESS PERIOD   41   TIME STEP    1
 
 SOLVING FOR HEAD 
                                                   Max.-Head-Change                         Max.-Flux-Residual
  Residual-Control   Outer-Iter.   Inner-Iter.     Column Row Layer    Maximum-Head-Change  Column Row Layer    Maximum-Flux-Residual          L2-NORM 
          0                 1           2             4    7     1       0.9533306010E-02       4    7    1         0.4983661547E+00      0.1476223396E+01
          0                 2           2             4    7     1      -0.9543485146E-03       4    7    1        -0.5128653507E-01      0.1495149389E+00
          0                 3           1             3    7     1       0.5827936212E-04       5    7    1         0.2975153541E-02      0.9048261751E-02

    ------------------------------------------------
       NWT REQUIRED            3 OUTER ITERATIONS 
       AND A TOTAL OF          5 INNER ITERATIONS.
    ------------------------------------------------

 NO OUTPUT CONTROL FOR STRESS PERIOD   41   TIME STEP    2
 
 SOLVING FOR HEAD 
                                                   Max.-Head-Change                         Max.-Flux-Residual
  Residual-Control   Outer-Iter.   Inner-Iter.     Column Row Layer    Maximum-Head-Change  Column Row Layer    Maximum-Flux-Residual          L2-NORM 
          0                 1           2             4    7     1       0.9491019321E-02       4    7    1         0.4961505242E+00      0.1469077292E+01
          0                 2           2             4    7     1      -0.9296044486E-03       4    7    1        -0.4994899462E-01      0.1476706367E+00
          0                 3           1             3    7     1       0.5828140993E-04       4    7    1         0.3115342482E-02      0.9534756505E-02

    ------------------------------------------------
       NWT REQUIRED            3 OUTER ITERATIONS 
       AND A TOTAL OF          5 INNER ITERATIONS.
    ------------------------------------------------

 NO OUTPUT CONTROL FOR STRESS PERIOD   41   TIME STEP    3
 
 SOLVING FOR HEAD 
                                                   Max.-Head-Change                         Max.-Flux-Residual
  Residual-Control   Outer-Iter.   Inner-Iter.     Column Row Layer    Maximum-Head-Change  Column Row Layer    Maximum-Flux-Residual          L2-NORM 
          0                 1           2             4    7     1       0.8999495603E-02       4    7    1         0.4715330364E+00      0.1418156937E+01
          0                 2           2             4    7     1      -0.9703781492E-03       4    7    1        -0.5231227328E-01      0.1473643649E+00
          0                 3           1             3    7     1       0.5724989480E-04       4    6    1        -0.2835632353E-02      0.8674365688E-02

    ------------------------------------------------
       NWT REQUIRED            3 OUTER ITERATIONS 
       AND A TOTAL OF          5 INNER ITERATIONS.
    ------------------------------------------------

 NO OUTPUT CONTROL FOR STRESS PERIOD   41   TIME STEP    4
 
 SOLVING FOR HEAD 
                                                   Max.-Head-Change                         Max.-Flux-Residual
  Residual-Control   Outer-Iter.   Inner-Iter.     Column Row Layer    Maximum-Head-Change  Column Row Layer    Maximum-Flux-Residual          L2-NORM 
          0                 1           2             3    7     1       0.8619250231E-02       5    8    1         0.3775027050E+00      0.1139722956E+01
          0                 2           2             5    6     1      -0.2420353592E-02       5    6    1        -0.1325403865E+00      0.1742057127E+00
          0                 3           2             5    6     1       0.2343563403E-03       5    6    1         0.1328807557E-01      0.1529322947E-01
          0                 4           1             5    7     1      -0.8405128985E-04       5    7    1        -0.4732020765E-02      0.5142329238E-02

    ------------------------------------------------
       NWT REQUIRED            4 OUTER ITERATIONS 
       AND A TOTAL OF          7 INNER ITERATIONS.
    ------------------------------------------------

 NO OUTPUT CONTROL FOR STRESS PERIOD   41   TIME STEP    5
 
 SOLVING FOR HEAD 
                                                   Max.-Head-Change                         Max.-Flux-Residual
  Residual-Control   Outer-Iter.   Inner-Iter.     Column Row Layer    Maximum-Head-Change  Column Row Layer    Maximum-Flux-Residual          L2-NORM 
          0                 1           2             3    7     1       0.8474335635E-02       5    8    1         0.3663516794E+00      0.1110297083E+01
          0                 2           2             5    6     1      -0.2356090690E-02       5    6    1        -0.1296776787E+00      0.1703524386E+00
          0                 3           2             5    6     1       0.2291606572E-03       5    6    1         0.1298120701E-01      0.1502102096E-01
          0                 4           1             5    8     1      -0.2332062291E-04       5    8    1        -0.1321456756E-02      0.1630767605E-02

    ------------------------------------------------
       NWT REQUIRED            4 OUTER ITERATIONS 
       AND A TOTAL OF          7 INNER ITERATIONS.
    ------------------------------------------------

 NO OUTPUT CONTROL FOR STRESS PERIOD   41   TIME STEP    6
 
 SOLVING FOR HEAD 
                                                   Max.-Head-Change                         Max.-Flux-Residual
  Residual-Control   Outer-Iter.   Inner-Iter.     Column Row Layer    Maximum-Head-Change  Column Row Layer    Maximum-Flux-Residual          L2-NORM 
          0                 1           2             3    7     1       0.8331927255E-02       4    9    1         0.2771858325E+00      0.1035972848E+01
          0                 2           2             5    8     1      -0.4720905287E-02       5    8    1        -0.2672775278E+00      0.3136336901E+00
          0                 3           2             5    8     1       0.3213603522E-03       5    8    1         0.1870206715E-01      0.2382045570E-01
          0                 4           1             5    6     1      -0.1558750711E-04       5    6    1        -0.9082962263E-03      0.1221730058E-02

    ------------------------------------------------
       NWT REQUIRED            4 OUTER ITERATIONS 
       AND A TOTAL OF          7 INNER ITERATIONS.
    ------------------------------------------------

 NO OUTPUT CONTROL FOR STRESS PERIOD   41   TIME STEP    7
 
 SOLVING FOR HEAD 
                                                   Max.-Head-Change                         Max.-Flux-Residual
  Residual-Control   Outer-Iter.   Inner-Iter.     Column Row Layer    Maximum-Head-Change  Column Row Layer    Maximum-Flux-Residual          L2-NORM 
          0                 1           2             3    7     1       0.8191922204E-02       4    9    1         0.2696607287E+00      0.1015298951E+01
          0                 2           2             5    8     1      -0.4545039356E-02       5    8    1        -0.2573044596E+00      0.3052743027E+00
          0                 3           2             5    8     1       0.3094923809E-03       5    8    1         0.1800999467E-01      0.2333442468E-01
          0                 4           1             5    6     1      -0.1578638969E-04       5    6    1        -0.9199071685E-03      0.1211716166E-02

    ------------------------------------------------
       NWT REQUIRED            4 OUTER ITERATIONS 
       AND A TOTAL OF          7 INNER ITERATIONS.
    ------------------------------------------------

 NO OUTPUT CONTROL FOR STRESS PERIOD   41   TIME STEP    8
 
 SOLVING FOR HEAD 
                                                   Max.-Head-Change                         Max.-Flux-Residual
  Residual-Control   Outer-Iter.   Inner-Iter.     Column Row Layer    Maximum-Head-Change  Column Row Layer    Maximum-Flux-Residual          L2-NORM 
          0                 1           2             3    7     1       0.8054351742E-02       4    9    1         0.2624280413E+00      0.9963515394E+00
          0                 2           2             5    8     1      -0.4494599884E-02       5    8    1        -0.2544467406E+00      0.3028437745E+00
          0                 3           2             5    8     1       0.3060642634E-03       5    8    1         0.1781006703E-01      0.2320621142E-01
          0                 4           1             5    6     1      -0.1591960929E-04       5    6    1        -0.9276811750E-03      0.1211517617E-02

    ------------------------------------------------
       NWT REQUIRED            4 OUTER ITERATIONS 
       AND A TOTAL OF          7 INNER ITERATIONS.
    ------------------------------------------------

 NO OUTPUT CONTROL FOR STRESS PERIOD   41   TIME STEP    9
 
 SOLVING FOR HEAD 
                                                   Max.-Head-Change                         Max.-Flux-Residual
  Residual-Control   Outer-Iter.   Inner-Iter.     Column Row Layer    Maximum-Head-Change  Column Row Layer    Maximum-Flux-Residual          L2-NORM 
          0                 1           2             3    7     1       0.7919209578E-02       4    9    1         0.2554630372E+00      0.9789850740E+00
          0                 2           2             5    8     1      -0.4470750133E-02       5    8    1        -0.2530971744E+00      0.3016683928E+00
          0                 3           2             5    8     1       0.3044401965E-03       5    8    1         0.1771532456E-01      0.2316408883E-01
          0                 4           1             5    6     1      -0.1605533384E-04       5    6    1        -0.9355989962E-03      0.1214187172E-02

    ------------------------------------------------
       NWT REQUIRED            4 OUTER ITERATIONS 
       AND A TOTAL OF          7 INNER ITERATIONS.
    ------------------------------------------------

 NO OUTPUT CONTROL FOR STRESS PERIOD   41   TIME STEP   10
 
 SOLVING FOR HEAD 
                                                   Max.-Head-Change                         Max.-Flux-Residual
  Residual-Control   Outer-Iter.   Inner-Iter.     Column Row Layer    Maximum-Head-Change  Column Row Layer    Maximum-Flux-Residual          L2-NORM 
          0                 1           2             3    7     1       0.7786484249E-02       4    9    1         0.2487628138E+00      0.9631208789E+00
          0                 2           2             5    8     1      -0.4494603651E-02       5    8    1        -0.2544531832E+00      0.3027763666E+00
          0                 3           2             5    8     1       0.3060645191E-03       5    8    1         0.1780996380E-01      0.2326592831E-01
          0                 4           1             5    6     1      -0.1618349360E-04       5    6    1        -0.9430488433E-03      0.1221224235E-02

    ------------------------------------------------
       NWT REQUIRED            4 OUTER ITERATIONS 
       AND A TOTAL OF          7 INNER ITERATIONS.
    ------------------------------------------------

 NO OUTPUT CONTROL FOR STRESS PERIOD   41   TIME STEP   11
 
 SOLVING FOR HEAD 
                                                   Max.-Head-Change                         Max.-Flux-Residual
  Residual-Control   Outer-Iter.   Inner-Iter.     Column Row Layer    Maximum-Head-Change  Column Row Layer    Maximum-Flux-Residual          L2-NORM 
          0                 1           2             3    7     1       0.7656161174E-02       4    9    1         0.2423248456E+00      0.9482520258E+00
          0                 2           2             5    8     1      -0.4513164081E-02       5    8    1        -0.2555082875E+00      0.3036423389E+00
          0                 3           2             5    8     1       0.3073284048E-03       5    8    1         0.1788355189E-01      0.2124574976E-01
          0                 4           1             5    8     1      -0.1222889055E-04       5    8    1        -0.7312495134E-03      0.8689429535E-03

    ------------------------------------------------
       NWT REQUIRED            4 OUTER ITERATIONS 
       AND A TOTAL OF          7 INNER ITERATIONS.
    ------------------------------------------------

 NO OUTPUT CONTROL FOR STRESS PERIOD   41   TIME STEP   12
 
 SOLVING FOR HEAD 
                                                   Max.-Head-Change                         Max.-Flux-Residual
  Residual-Control   Outer-Iter.   Inner-Iter.     Column Row Layer    Maximum-Head-Change  Column Row Layer    Maximum-Flux-Residual          L2-NORM 
          0                 1           2             3    7     1       0.7528225310E-02       4    9    1         0.2361271506E+00      0.9344271192E+00
          0                 2           2             5    8     1      -0.4529390637E-02       5    8    1        -0.2564303460E+00      0.3044058713E+00
          0                 3           2             5    8     1       0.3084333638E-03       5    8    1         0.1794783654E-01      0.2129919956E-01
          0                 4           1             5    8     1      -0.1227285813E-04       5    8    1        -0.7338536593E-03      0.8711857549E-03

    ------------------------------------------------
       NWT REQUIRED            4 OUTER ITERATIONS 
       AND A TOTAL OF          7 INNER ITERATIONS.
    ------------------------------------------------

 NO OUTPUT CONTROL FOR STRESS PERIOD   41   TIME STEP   13
 
 SOLVING FOR HEAD 
                                                   Max.-Head-Change                         Max.-Flux-Residual
  Residual-Control   Outer-Iter.   Inner-Iter.     Column Row Layer    Maximum-Head-Change  Column Row Layer    Maximum-Flux-Residual          L2-NORM 
          0                 1           2             3    7     1       0.7402654880E-02       4    9    1         0.2301744716E+00      0.9216441701E+00
          0                 2           2             5    8     1      -0.4544348726E-02       5    8    1        -0.2572799389E+00      0.3051165273E+00
          0                 3           2             5    8     1       0.3094233261E-03       5    8    1         0.1800538944E-01      0.2134768016E-01
          0                 4           1             5    8     1      -0.1231224927E-04       5    8    1        -0.7361834032E-03      0.8732462023E-03

    ------------------------------------------------
       NWT REQUIRED            4 OUTER ITERATIONS 
       AND A TOTAL OF          7 INNER ITERATIONS.
    ------------------------------------------------

 NO OUTPUT CONTROL FOR STRESS PERIOD   41   TIME STEP   14
 
 SOLVING FOR HEAD 
                                                   Max.-Head-Change                         Max.-Flux-Residual
  Residual-Control   Outer-Iter.   Inner-Iter.     Column Row Layer    Maximum-Head-Change  Column Row Layer    Maximum-Flux-Residual          L2-NORM 
          0                 1           2             3    7     1       0.7279429907E-02       4    9    1         0.2244576999E+00      0.9092143174E+00
          0                 2           2             5    8     1      -0.4558154367E-02       5    8    1        -0.2580636482E+00      0.3057774835E+00
          0                 3           2             5    8     1       0.3103634313E-03       5    8    1         0.1806000794E-01      0.2139428728E-01
          0                 4           1             5    8     1      -0.1234965710E-04       5    8    1        -0.7383939774E-03      0.8752490581E-03

    ------------------------------------------------
       NWT REQUIRED            4 OUTER ITERATIONS 
       AND A TOTAL OF          7 INNER ITERATIONS.
    ------------------------------------------------

 NO OUTPUT CONTROL FOR STRESS PERIOD   41   TIME STEP   15
 
 SOLVING FOR HEAD 
                                                   Max.-Head-Change                         Max.-Flux-Residual
  Residual-Control   Outer-Iter.   Inner-Iter.     Column Row Layer    Maximum-Head-Change  Column Row Layer    Maximum-Flux-Residual          L2-NORM 
          0                 1           2             3    7     1       0.7158766841E-02       4    9    1         0.2189618517E+00      0.8975133292E+00
          0                 2           2             5    8     1      -0.4571162901E-02       5    8    1        -0.2588017103E+00      0.3064052485E+00
          0                 3           2             5    8     1       0.3112502784E-03       5    8    1         0.1811149936E-01      0.2143875135E-01
          0                 4           1             5    8     1      -0.1238494532E-04       5    8    1        -0.7404774656E-03      0.8771835493E-03

    ------------------------------------------------
       NWT REQUIRED            4 OUTER ITERATIONS 
       AND A TOTAL OF          7 INNER ITERATIONS.
    ------------------------------------------------

 NO OUTPUT CONTROL FOR STRESS PERIOD   41   TIME STEP   16
 
 SOLVING FOR HEAD 
                                                   Max.-Head-Change                         Max.-Flux-Residual
  Residual-Control   Outer-Iter.   Inner-Iter.     Column Row Layer    Maximum-Head-Change  Column Row Layer    Maximum-Flux-Residual          L2-NORM 
          0                 1           2             3    7     1       0.7040146276E-02       4    9    1         0.2136788127E+00      0.8865034515E+00
          0                 2           2             5    8     1      -0.4583415117E-02       5    8    1        -0.2594965093E+00      0.3070013965E+00
          0                 3           2             5    8     1       0.3120846019E-03       5    8    1         0.1815991110E-01      0.2148105021E-01
          0                 4           1             5    8     1      -0.1241814444E-04       5    8    1        -0.7424358278E-03      0.8790480147E-03

    ------------------------------------------------
       NWT REQUIRED            4 OUTER ITERATIONS 
       AND A TOTAL OF          7 INNER ITERATIONS.
    ------------------------------------------------

 NO OUTPUT CONTROL FOR STRESS PERIOD   41   TIME STEP   17
 
 SOLVING FOR HEAD 
                                                   Max.-Head-Change                         Max.-Flux-Residual
  Residual-Control   Outer-Iter.   Inner-Iter.     Column Row Layer    Maximum-Head-Change  Column Row Layer    Maximum-Flux-Residual          L2-NORM 
          0                 1           2             3    7     1       0.6924032183E-02       4    9    1         0.2086067447E+00      0.8762958128E+00
          0                 2           2             5    8     1      -0.4594962899E-02       5    8    1        -0.2601510250E+00      0.3075672319E+00
          0                 3           2             5    8     1       0.3128719782E-03       5    8    1         0.1820557036E-01      0.2152136455E-01
          0                 4           1             5    8     1      -0.1244947469E-04       5    8    1        -0.7442823376E-03      0.8808504928E-03

    ------------------------------------------------
       NWT REQUIRED            4 OUTER ITERATIONS 
       AND A TOTAL OF          7 INNER ITERATIONS.
    ------------------------------------------------

 NO OUTPUT CONTROL FOR STRESS PERIOD   41   TIME STEP   18
 
 SOLVING FOR HEAD 
                                                   Max.-Head-Change                         Max.-Flux-Residual
  Residual-Control   Outer-Iter.   Inner-Iter.     Column Row Layer    Maximum-Head-Change  Column Row Layer    Maximum-Flux-Residual          L2-NORM 
          0                 1           2             3    7     1       0.6810145110E-02       4    9    1         0.2037310688E+00      0.8664013961E+00
          0                 2           2             5    8     1      -0.4605842341E-02       5    8    1        -0.2607670907E+00      0.3081020716E+00
          0                 3           2             5    8     1       0.3136117990E-03       5    8    1         0.1824842665E-01      0.2155958932E-01
          0                 4           1             5    8     1      -0.1247891270E-04       5    8    1        -0.7460149477E-03      0.8825815499E-03

    ------------------------------------------------
       NWT REQUIRED            4 OUTER ITERATIONS 
       AND A TOTAL OF          7 INNER ITERATIONS.
    ------------------------------------------------

 NO OUTPUT CONTROL FOR STRESS PERIOD   41   TIME STEP   19
 
 SOLVING FOR HEAD 
                                                   Max.-Head-Change                         Max.-Flux-Residual
  Residual-Control   Outer-Iter.   Inner-Iter.     Column Row Layer    Maximum-Head-Change  Column Row Layer    Maximum-Flux-Residual          L2-NORM 
          0                 1           2             3    7     1       0.6698695435E-02       5    8    1         0.2032990622E+00      0.8570532747E+00
          0                 2           2             5    8     1      -0.4616104507E-02       5    8    1        -0.2613481409E+00      0.3086100133E+00
          0                 3           2             5    8     1       0.3143095863E-03       5    8    1         0.1828883932E-01      0.2159602413E-01
          0                 4           1             5    8     1      -0.1250667837E-04       5    8    1        -0.7476483509E-03      0.8842565077E-03

    ------------------------------------------------
       NWT REQUIRED            4 OUTER ITERATIONS 
       AND A TOTAL OF          7 INNER ITERATIONS.
    ------------------------------------------------

 NO OUTPUT CONTROL FOR STRESS PERIOD   41   TIME STEP   20
 
 SOLVING FOR HEAD 
                                                   Max.-Head-Change                         Max.-Flux-Residual
  Residual-Control   Outer-Iter.   Inner-Iter.     Column Row Layer    Maximum-Head-Change  Column Row Layer    Maximum-Flux-Residual          L2-NORM 
          0                 1           2             3    7     1       0.6589159357E-02       5    8    1         0.2088037754E+00      0.8481973260E+00
          0                 2           2             5    8     1      -0.4625795870E-02       5    8    1        -0.2618966201E+00      0.3090921922E+00
          0                 3           2             5    8     1       0.3149695268E-03       5    8    1         0.1832703880E-01      0.2163076744E-01
          0                 4           1             5    8     1      -0.1253293840E-04       5    8    1        -0.7491919389E-03      0.8858585105E-03

    ------------------------------------------------
       NWT REQUIRED            4 OUTER ITERATIONS 
       AND A TOTAL OF          7 INNER ITERATIONS.
    ------------------------------------------------

 NO OUTPUT CONTROL FOR STRESS PERIOD   41   TIME STEP   21
 
 SOLVING FOR HEAD 
                                                   Max.-Head-Change                         Max.-Flux-Residual
  Residual-Control   Outer-Iter.   Inner-Iter.     Column Row Layer    Maximum-Head-Change  Column Row Layer    Maximum-Flux-Residual          L2-NORM 
          0                 1           2             3    7     1       0.6482235008E-02       5    8    1         0.2139958294E+00      0.8397997546E+00
          0                 2           2             5    8     1      -0.4634939323E-02       5    8    1        -0.2624138332E+00      0.3095493772E+00
          0                 3           2             5    8     1       0.3155921563E-03       5    8    1         0.1836305624E-01      0.2166384433E-01
          0                 4           1             5    8     1      -0.1255771317E-04       5    8    1        -0.7506468953E-03      0.8874125675E-03

    ------------------------------------------------
       NWT REQUIRED            4 OUTER ITERATIONS 
       AND A TOTAL OF          7 INNER ITERATIONS.
    ------------------------------------------------

 NO OUTPUT CONTROL FOR STRESS PERIOD   41   TIME STEP   22
 
 SOLVING FOR HEAD 
                                                   Max.-Head-Change                         Max.-Flux-Residual
  Residual-Control   Outer-Iter.   Inner-Iter.     Column Row Layer    Maximum-Head-Change  Column Row Layer    Maximum-Flux-Residual          L2-NORM 
          0                 1           2             3    7     1       0.6377148102E-02       5    8    1         0.2189036768E+00      0.8318327370E+00
          0                 2           2             5    8     1      -0.4643583563E-02       5    8    1        -0.2629025956E+00      0.3099832246E+00
          0                 3           2             5    8     1       0.3161807922E-03       5    8    1         0.1839696147E-01      0.2169499642E-01
          0                 4           1             5    8     1      -0.1258113565E-04       5    8    1        -0.7520038989E-03      0.8888598171E-03

    ------------------------------------------------
       NWT REQUIRED            4 OUTER ITERATIONS 
       AND A TOTAL OF          7 INNER ITERATIONS.
    ------------------------------------------------

 NO OUTPUT CONTROL FOR STRESS PERIOD   41   TIME STEP   23
 
 SOLVING FOR HEAD 
                                                   Max.-Head-Change                         Max.-Flux-Residual
  Residual-Control   Outer-Iter.   Inner-Iter.     Column Row Layer    Maximum-Head-Change  Column Row Layer    Maximum-Flux-Residual          L2-NORM 
          0                 1           2             3    7     1       0.6274354915E-02       5    8    1         0.2235379176E+00      0.8242590651E+00
          0                 2           2             5    8     1      -0.4651747815E-02       5    8    1        -0.2633639972E+00      0.3103947002E+00
          0                 3           2             5    8     1       0.3167367424E-03       5    8    1         0.1842888835E-01      0.2172450150E-01
          0                 4           1             5    8     1      -0.1260325707E-04       5    8    1        -0.7532737213E-03      0.8902484390E-03

    ------------------------------------------------
       NWT REQUIRED            4 OUTER ITERATIONS 
       AND A TOTAL OF          7 INNER ITERATIONS.
    ------------------------------------------------

 NO OUTPUT CONTROL FOR STRESS PERIOD   41   TIME STEP   24
 
 SOLVING FOR HEAD 
                                                   Max.-Head-Change                         Max.-Flux-Residual
  Residual-Control   Outer-Iter.   Inner-Iter.     Column Row Layer    Maximum-Head-Change  Column Row Layer    Maximum-Flux-Residual          L2-NORM 
          0                 1           2             3    7     1       0.6173811800E-02       5    8    1         0.2279163665E+00      0.8170614465E+00
          0                 2           2             5    8     1      -0.4659463920E-02       5    8    1        -0.2637998790E+00      0.3107849718E+00
          0                 3           2             5    8     1       0.3172631975E-03       5    8    1         0.1845910049E-01      0.2175266048E-01
          0                 4           1             5    8     1      -0.1262420557E-04       5    8    1        -0.7544745852E-03      0.8915656064E-03

    ------------------------------------------------
       NWT REQUIRED            4 OUTER ITERATIONS 
       AND A TOTAL OF          7 INNER ITERATIONS.
    ------------------------------------------------

 NO OUTPUT CONTROL FOR STRESS PERIOD   41   TIME STEP   25
 
 SOLVING FOR HEAD 
                                                   Max.-Head-Change                         Max.-Flux-Residual
  Residual-Control   Outer-Iter.   Inner-Iter.     Column Row Layer    Maximum-Head-Change  Column Row Layer    Maximum-Flux-Residual          L2-NORM 
          0                 1           2             3    7     1       0.6074990902E-02       5    8    1         0.2320632211E+00      0.8102156645E+00
          0                 2           2             5    8     1      -0.4666773059E-02       5    8    1        -0.2642125714E+00      0.3111560800E+00
          0                 3           2             5    8     1       0.3177609192E-03       5    8    1         0.1848764112E-01      0.2177952522E-01
          0                 4           1             5    8     1      -0.1264401063E-04       5    8    1        -0.7556082026E-03      0.8928640011E-03

    ------------------------------------------------
       NWT REQUIRED            4 OUTER ITERATIONS 
       AND A TOTAL OF          7 INNER ITERATIONS.
    ------------------------------------------------

 NO OUTPUT CONTROL FOR STRESS PERIOD   41   TIME STEP   26
 
 SOLVING FOR HEAD 
                                                   Max.-Head-Change                         Max.-Flux-Residual
  Residual-Control   Outer-Iter.   Inner-Iter.     Column Row Layer    Maximum-Head-Change  Column Row Layer    Maximum-Flux-Residual          L2-NORM 
          0                 1           2             3    7     1       0.5978589545E-02       5    8    1         0.2359777648E+00      0.8036813082E+00
          0                 2           2             5    8     1      -0.4673672931E-02       5    8    1        -0.2646020027E+00      0.3115068068E+00
          0                 3           2             5    8     1       0.3182297483E-03       5    8    1         0.1851450556E-01      0.2180500139E-01
          0                 4           1             5    8     1      -0.1266266545E-04       5    8    1        -0.7566743629E-03      0.8941143284E-03

    ------------------------------------------------
       NWT REQUIRED            4 OUTER ITERATIONS 
       AND A TOTAL OF          7 INNER ITERATIONS.
    ------------------------------------------------

 NO OUTPUT CONTROL FOR STRESS PERIOD   41   TIME STEP   27
 
 SOLVING FOR HEAD 
                                                   Max.-Head-Change                         Max.-Flux-Residual
  Residual-Control   Outer-Iter.   Inner-Iter.     Column Row Layer    Maximum-Head-Change  Column Row Layer    Maximum-Flux-Residual          L2-NORM 
          0                 1           2             3    7     1       0.5884069812E-02       5    8    1         0.2396901232E+00      0.7974591546E+00
          0                 2           2             5    8     1      -0.4680217735E-02       5    8    1        -0.2649712452E+00      0.3118407265E+00
          0                 3           2             5    8     1       0.3186764436E-03       5    8    1         0.1854008693E-01      0.2182946091E-01
          0                 4           1             5    8     1      -0.1268043988E-04       5    8    1        -0.7576891314E-03      0.8953336113E-03

    ------------------------------------------------
       NWT REQUIRED            4 OUTER ITERATIONS 
       AND A TOTAL OF          7 INNER ITERATIONS.
    ------------------------------------------------

 NO OUTPUT CONTROL FOR STRESS PERIOD   41   TIME STEP   28
 
 SOLVING FOR HEAD 
                                                   Max.-Head-Change                         Max.-Flux-Residual
  Residual-Control   Outer-Iter.   Inner-Iter.     Column Row Layer    Maximum-Head-Change  Column Row Layer    Maximum-Flux-Residual          L2-NORM 
          0                 1           2             3    7     1       0.5791638955E-02       5    8    1         0.2432051398E+00      0.7915141357E+00
          0                 2           2             5    8     1      -0.4686414178E-02       5    8    1        -0.2653206937E+00      0.3121574012E+00
          0                 3           2             5    8     1       0.3190973729E-03       5    8    1         0.1856947240E-01      0.2184639418E-01
          0                 4           1             5    8     1      -0.1269718922E-04       5    8    1        -0.7593744272E-03      0.8947316904E-03

    ------------------------------------------------
       NWT REQUIRED            4 OUTER ITERATIONS 
       AND A TOTAL OF          7 INNER ITERATIONS.
    ------------------------------------------------

 NO OUTPUT CONTROL FOR STRESS PERIOD   41   TIME STEP   29
 
 SOLVING FOR HEAD 
                                                   Max.-Head-Change                         Max.-Flux-Residual
  Residual-Control   Outer-Iter.   Inner-Iter.     Column Row Layer    Maximum-Head-Change  Column Row Layer    Maximum-Flux-Residual          L2-NORM 
          0                 1           2             3    7     1       0.5701010445E-02       5    8    1         0.2465272819E+00      0.7858300060E+00
          0                 2           2             5    8     1      -0.4692272410E-02       5    8    1        -0.2656509142E+00      0.3124576769E+00
          0                 3           2             5    8     1       0.3194962930E-03       5    8    1         0.1859242375E-01      0.2186803551E-01
          0                 4           1             5    8     1      -0.1271306255E-04       5    8    1        -0.7602972487E-03      0.8957481568E-03

    ------------------------------------------------
       NWT REQUIRED            4 OUTER ITERATIONS 
       AND A TOTAL OF          7 INNER ITERATIONS.
    ------------------------------------------------

 NO OUTPUT CONTROL FOR STRESS PERIOD   41   TIME STEP   30



 STREAM LISTING     PERIOD     41   STEP       30

 LAYER ROW COL. STREAM  RCH.  FLOW INTO     FLOW TO   FLOW OUT OF   OVRLND.     DIRECT     STREAM       STREAM     STREAM     STREAM   STREAMBED  STREAMBED
                SEG.NO.  NO.  STRM. RCH.    AQUIFER    STRM. RCH.    RUNOFF     PRECIP       ET          HEAD       DEPTH      WIDTH   CONDCTNC.   GRADIENT

   1    1    1     1     1    1.9000E+01  2.1427E-01   1.8786E+01  0.000E+00  0.000E+00  0.000E+00  1.09413E+03  1.082E+00  1.166E+01  5.249E-02  1.361E+00
   1    2    2     1     2    1.8786E+01  3.3054E-01   1.8455E+01  0.000E+00  0.000E+00  0.000E+00  1.08914E+03  1.077E+00  1.158E+01  8.107E-02  1.359E+00
   1    3    3     1     3    1.8455E+01  2.8064E-01   1.8175E+01  0.000E+00  0.000E+00  0.000E+00  1.08349E+03  1.072E+00  1.149E+01  6.892E-02  1.357E+00
   1    3    4     1     4    1.8175E+01  2.5740E-01   1.7917E+01  0.000E+00  0.000E+00  0.000E+00  1.07848E+03  1.068E+00  1.140E+01  6.328E-02  1.356E+00
   1    4    5     2     1    1.5917E+01  3.0542E-01   1.5612E+01  0.000E+00  0.000E+00  0.000E+00  1.07285E+03  9.157E-01  1.200E+01  7.800E-02  1.305E+00
   1    5    6     2     2    1.5612E+01  2.3438E-01   1.5377E+01  0.000E+00  0.000E+00  0.000E+00  1.06742E+03  9.063E-01  1.200E+01  6.000E-02  1.302E+00
   1    6    6     2     3    1.5377E+01  2.3388E-01   1.5143E+01  0.000E+00  0.000E+00  0.000E+00  1.06269E+03  8.980E-01  1.200E+01  6.000E-02  1.299E+00
   1    7    6     2     4    1.5143E+01  2.3338E-01   1.4910E+01  0.000E+00  0.000E+00  0.000E+00  1.05797E+03  8.897E-01  1.200E+01  6.000E-02  1.297E+00
   1    8    6     2     5    1.4910E+01  2.3289E-01   1.4677E+01  0.000E+00  0.000E+00  0.000E+00  1.05324E+03  8.814E-01  1.200E+01  6.000E-02  1.294E+00
   1    3    5     3     1    2.0000E+00  2.8252E-01   1.7175E+00  0.000E+00  0.000E+00  0.000E+00  1.07555E+03  1.909E+00  9.636E+00  7.227E-02  1.955E+00
   1    3    6     3     2    1.7175E+00  2.4905E-01   1.4684E+00  0.000E+00  0.000E+00  0.000E+00  1.07264E+03  1.727E+00  8.909E+00  6.682E-02  1.864E+00
   1    3    7     3     3    1.4684E+00  1.9718E-01   1.2712E+00  0.000E+00  0.000E+00  0.000E+00  1.06987E+03  1.555E+00  8.218E+00  5.547E-02  1.777E+00
   1    4    8     3     4    1.2712E+00  2.2567E-01   1.0456E+00  0.000E+00  0.000E+00  0.000E+00  1.06682E+03  1.364E+00  7.455E+00  6.709E-02  1.682E+00
   1    5    8     3     5    1.0456E+00  1.5790E-01   8.8768E-01  0.000E+00  0.000E+00  0.000E+00  1.06362E+03  1.164E+00  6.655E+00  4.991E-02  1.582E+00
   1    6    8     3     6    8.8768E-01  5.5980E-02   8.3170E-01  0.000E+00  0.000E+00  0.000E+00  1.06158E+03  1.036E+00  6.145E+00  1.844E-02  1.518E+00
   1    5   10     4     1    1.0000E+01  9.0919E-02   9.9091E+00  0.000E+00  0.000E+00  0.000E+00  1.07836E+03  6.368E-01  1.000E+01  2.500E-02  1.212E+00
   1    5    9     4     2    9.9091E+00  1.8158E-01   9.7275E+00  0.000E+00  0.000E+00  0.000E+00  1.07154E+03  6.315E-01  1.000E+01  5.000E-02  1.211E+00
   1    6    8     4     3    9.7275E+00  1.2689E-01   9.6006E+00  0.000E+00  0.000E+00  0.000E+00  1.06381E+03  6.256E-01  1.000E+01  3.500E-02  1.209E+00
   1    6    8     5     1    1.0432E+01  2.2686E-01   1.0205E+01  0.000E+00  0.000E+00  0.000E+00  1.05868E+03  6.790E-01  1.542E+01  6.166E-02  1.226E+00
   1    7    7     5     2    1.0205E+01  2.7894E-01   9.9265E+00  0.000E+00  0.000E+00  0.000E+00  1.05417E+03  6.732E-01  1.519E+01  7.594E-02  1.224E+00
   1    8    7     5     3    9.9265E+00  1.9221E-01   9.7343E+00  0.000E+00  0.000E+00  0.000E+00  1.04992E+03  6.676E-01  1.497E+01  5.241E-02  1.223E+00
   1    8    6     5     4    9.7343E+00  1.3577E-01   9.5985E+00  0.000E+00  0.000E+00  0.000E+00  1.04691E+03  6.637E-01  1.482E+01  3.706E-02  1.221E+00
   1    9    6     6     1    2.4276E+01  2.5176E-01   2.4024E+01  0.000E+00  0.000E+00  0.000E+00  1.04392E+03  1.196E+00  1.200E+01  6.000E-02  1.399E+00
   1   10    7     6     2    2.4024E+01  2.5131E-01   2.3773E+01  0.000E+00  0.000E+00  0.000E+00  1.03937E+03  1.188E+00  1.200E+01  6.000E-02  1.396E+00
   1   11    7     6     3    2.3773E+01  2.5086E-01   2.3522E+01  0.000E+00  0.000E+00  0.000E+00  1.03482E+03  1.181E+00  1.200E+01  6.000E-02  1.394E+00
   1   12    7     6     4    2.3522E+01  2.5041E-01   2.3271E+01  0.000E+00  0.000E+00  0.000E+00  1.03026E+03  1.173E+00  1.200E+01  6.000E-02  1.391E+00
   1   13    7     6     5    2.3271E+01  1.0499E-02   2.3261E+01  0.000E+00  0.000E+00  0.000E+00  1.02708E+03  1.170E+00  1.200E+01  2.400E-02  1.458E-01
   1   14    9     7     1    1.5000E+02  1.3675E+00   1.4863E+02  0.000E+00  0.000E+00  0.000E+00  1.03987E+03  2.288E+00  5.529E+01  5.593E-01  8.150E-01
   1   13    8     7     2    1.4863E+02  1.9616E+00   1.4667E+02  0.000E+00  0.000E+00  0.000E+00  1.03478E+03  2.279E+00  5.525E+01  6.147E-01  1.064E+00
   1   13    7     7     3    1.4667E+02  1.7015E+00   1.4497E+02  0.000E+00  0.000E+00  0.000E+00  1.02969E+03  2.269E+00  5.521E+01  5.584E-01  1.016E+00
   1   13    6     8     1    1.6823E+02  1.1380E+00   1.6709E+02  0.000E+00  0.000E+00  0.000E+00  1.02481E+03  2.937E+00  4.259E+01  4.340E-01  8.741E-01
   1   13    5     8     2    1.6709E+02  3.7577E-01   1.6672E+02  0.000E+00  0.000E+00  0.000E+00  1.01856E+03  2.932E+00  4.251E+01  4.332E-01  2.891E-01
   1   13    4     8     3    1.6672E+02 -1.7783E+00   1.6849E+02  0.000E+00  0.000E+00  0.000E+00  1.01231E+03  2.937E+00  4.258E+01  4.339E+00 -1.366E-01
   1   13    3     8     4    1.6849E+02 -3.3292E+00   1.7182E+02  0.000E+00  0.000E+00  0.000E+00  1.00608E+03  2.953E+00  4.282E+01  4.364E+00 -2.543E-01
   1   13    2     8     5    1.7182E+02 -2.5020E+00   1.7433E+02  0.000E+00  0.000E+00  0.000E+00  9.99847E+02  2.972E+00  4.310E+01  4.392E+00 -1.899E-01
   1   13    1     8     6    1.7433E+02 -1.9625E+00   1.7629E+02  0.000E+00  0.000E+00  0.000E+00  9.94861E+02  2.986E+00  4.330E+01  2.648E+00 -2.471E-01





UNSATURATED ZONE PACKAGE VOLUMETRIC BUDGET FOR  TIME STEP    30 STRESS PERIOD   41
  ------------------------------------------------------------------------------



     CUMULATIVE VOLUMES      L**3       RATES FOR THIS TIME STEP      L**3/T
     ------------------                 ------------------------

           IN:                                      IN:
           ---                                      ---
        INFILTRATION =  1882486938.4482          INFILTRATION =           7.8575

          OUT:                                     OUT:
          ----                                     ----
              UZF ET =  1539557703.5189                UZF ET =           7.8575
        UZF RECHARGE =   222338882.1939          UZF RECHARGE =           0.0219

            IN - OUT =   120590352.7354              IN - OUT =      -2.1909E-02

          STORAGE:                                 STORAGE:
          --------                                 --------
      STORAGE CHANGE =   120591861.9188        STORAGE CHANGE =      -2.1909E-02

 PERCENT DISCREPANCY IS DIFFERENCE BETWEEN IN-OUT MINUS CHANGE IN STORAGE
 DIVIDED BY THE AVERAGE OF IN AND OUT TIMES 100

 PERCENT DISCREPANCY =          -0.00     PERCENT DISCREPANCY =           0.00






1
  VOLUMETRIC BUDGET FOR AGRICULTURAL FIELDS AT TIME STEP   30, STRESS PERIOD  41
  ------------------------------------------------------------------------------

     CUMULATIVE VOLUMES      L**3       RATES FOR THIS TIME STEP      L**3/T
     ------------------                 ------------------------

           IN:                                      IN:
           ---                                      ---
               AG WELLS  =  1418744448.0000                 AG WELLS  =           3.4500
      DIVERSION SEGMENTS =           0.0000        DIVERSION SEGMENTS =           0.0000
           GW IRRIGATION =           0.0000             GW IRRIGATION =           0.0000
           SW IRRIGATION =           0.0000             SW IRRIGATION =           0.0000
        SYSTEM LOSSES GW =           0.0000          SYSTEM LOSSES GW =           0.0000
        SYSTEM LOSSES SW =           0.0000          SYSTEM LOSSES SW =           0.0000

                TOTAL IN =  1418744448.0000                  TOTAL IN =           3.4500

          OUT:                                     OUT:
          ----                                     ----
               AG WELLS  =           0.0000                 AG WELLS  =           0.0000
      DIVERSION SEGMENTS =           0.0000        DIVERSION SEGMENTS =           0.0000
           GW IRRIGATION =  1418744448.0000             GW IRRIGATION =           3.4500
           SW IRRIGATION =           0.0000             SW IRRIGATION =           0.0000
        SYSTEM LOSSES GW =           0.0000          SYSTEM LOSSES GW =           0.0000
        SYSTEM LOSSES SW =           0.0000          SYSTEM LOSSES SW =           0.0000

               TOTAL OUT =  1418744448.0000                 TOTAL OUT =           3.4500

                IN - OUT =           0.0000                  IN - OUT =           0.0000

     PERCENT DISCREPANCY =           0.00         PERCENT DISCREPANCY =           0.00



1
  VOLUMETRIC BUDGET FOR ENTIRE MODEL AT END OF TIME STEP   30, STRESS PERIOD  41
  ------------------------------------------------------------------------------

     CUMULATIVE VOLUMES      L**3       RATES FOR THIS TIME STEP      L**3/T
     ------------------                 ------------------------

           IN:                                      IN:
           ---                                      ---
             STORAGE     =  1871702016.0000               STORAGE     =           3.4457
       CONSTANT HEAD     =           0.0000         CONSTANT HEAD     =           0.0000
     HEAD DEP BOUNDS     =    30115300.0000       HEAD DEP BOUNDS     =           0.2879
      STREAM LEAKAGE     =  1289520768.0000        STREAM LEAKAGE     =          12.2834
        UZF RECHARGE     =   222338800.0000          UZF RECHARGE     =       2.1907E-02
               GW ET     =           0.0000                 GW ET     =           0.0000
     SURFACE LEAKAGE     =           0.0000       SURFACE LEAKAGE     =           0.0000
           AG WELLS      =           0.0000             AG WELLS      =           0.0000

                TOTAL IN =  3413676800.0000                  TOTAL IN =          16.0390

          OUT:                                     OUT:
          ----                                     ----
             STORAGE     =   872476800.0000               STORAGE     =           2.7281
       CONSTANT HEAD     =           0.0000         CONSTANT HEAD     =           0.0000
     HEAD DEP BOUNDS     =    30753256.0000       HEAD DEP BOUNDS     =           0.2889
      STREAM LEAKAGE     =  1074404608.0000        STREAM LEAKAGE     =           9.5719
        UZF RECHARGE     =           0.0000          UZF RECHARGE     =           0.0000
               GW ET     =    17288296.0000                 GW ET     =           0.0000
     SURFACE LEAKAGE     =           0.0000       SURFACE LEAKAGE     =           0.0000
           AG WELLS      =  1418744448.0000             AG WELLS      =           3.4500

               TOTAL OUT =  3413667328.0000                 TOTAL OUT =          16.0389

                IN - OUT =        9472.0000                  IN - OUT =       2.2888E-05

     PERCENT DISCREPANCY =           0.00         PERCENT DISCREPANCY =           0.00






         TIME SUMMARY AT END OF TIME STEP   30 IN STRESS PERIOD   41
                    SECONDS     MINUTES      HOURS       DAYS        YEARS
                    -----------------------------------------------------------
   TIME STEP LENGTH  87667.      1461.1      24.352      1.0147     2.77799E-03
 STRESS PERIOD TIME 2.63000E+06  43833.      730.56      30.440     8.33397E-02
         TOTAL TIME 1.05286E+08 1.75476E+06  29246.      1218.6      3.3363    
1
1
                            STRESS PERIOD NO.   42, LENGTH =   2630000.    
                            -----------------------------------------------

                              NUMBER OF TIME STEPS =    30

                               MULTIPLIER FOR DELT =     1.000

                            INITIAL TIME STEP SIZE =   87666.66    

 REUSING NON-PARAMETER GHB CELLS FROM LAST STRESS PERIOD

      2 GHB CELLS

 REUSING STREAM SEGMENT DATA FROM LAST STRESS PERIOD



            AREAL INFILTRATION RATE
 READING ON UNIT   19 WITH FORMAT: (10F4.0)            

            1           2           3           4           5           6           7           8           9          10
 ........................................................................................................................
   1   1.2000E-09   0.000       0.000       0.000       0.000       0.000       0.000       0.000       0.000       0.000    
   2   2.1000E-09  2.0000E-09  8.0000E-10  8.5000E-09   0.000       0.000       0.000       0.000       0.000       0.000    
   3   5.0000E-10  1.1000E-09  8.8000E-09  5.5000E-09   0.000       0.000       0.000       0.000       0.000       0.000    
   4   8.5000E-09  1.1000E-09  1.1000E-09  1.1000E-09  2.0000E-09   0.000       0.000       0.000       0.000       0.000    
   5   8.5000E-09  1.1000E-09  1.1000E-09  1.1000E-09  1.1000E-09   0.000       0.000       0.000       0.000       0.000    
   6   8.5000E-09  5.2000E-09  2.1000E-09  1.1000E-09  1.5000E-09   0.000       0.000       0.000       0.000       0.000    
   7   8.5000E-09  5.2000E-09  2.1000E-09  1.2000E-09  2.0000E-09   0.000       0.000       0.000       0.000       0.000    
   8   5.0000E-10  5.2000E-09  2.1000E-09  1.2000E-09  5.0000E-09   0.000       0.000       0.000       0.000       0.000    
   9   5.0000E-10  5.2000E-09  2.1000E-09  1.2000E-09  5.0000E-09   0.000       0.000       0.000       0.000       0.000    
  10   5.0000E-10  5.2000E-09  2.1000E-09  1.2000E-09  5.8000E-09   0.000       0.000       0.000       0.000       0.000    
  11   1.0000E-10  1.1000E-09  1.1000E-09  1.2000E-09  5.0000E-09   0.000       0.000       0.000       0.000       0.000    
  12   1.1000E-09  1.1000E-09  1.1000E-09  1.1000E-09  2.0000E-09   0.000       0.000       0.000       0.000       0.000    
  13   1.1000E-09  2.2000E-09  2.2000E-09  2.1000E-09  1.0000E-09   0.000       0.000       0.000       0.000       0.000    
  14   2.0000E-10  5.5000E-09  5.5000E-09  5.2000E-09  1.0000E-09   0.000       0.000       0.000       0.000       0.000    
  15    0.000      8.8000E-09  8.8000E-09   0.000       0.000       0.000       0.000       0.000       0.000       0.000    

                  ET RATE =  5.000000E-08

 USING ET EXTINCTION DEPTH FROM PREVIOUS STRESS PERIOD. CURRENT PERIOD IS:      42

 USING EXTINCTION WATER CONTENT FROM PREVIOUS STRESS PERIOD. CURRENT PERIOD IS:      42

 USING AIR ENTRY PRESSURE FROM PREVIOUS STRESS PERIOD. CURRENT PERIOD IS:      42

 USING ROOT PRESSURE HEAD FROM PREVIOUS STRESS PERIOD. CURRENT PERIOD IS:      42

 USING ROOT ACTIVITY FROM PREVIOUS STRESS PERIOD. CURRENT PERIOD IS:      42

 PROCESSING AG STRESS PERIOD DATA

 READING AG STRESS PERIOD DATA

 READING IRRIGATION WELL

 END PROCESSING AG STRESS PERIOD DATA OPTIONS
 
 SOLVING FOR HEAD 
                                                   Max.-Head-Change                         Max.-Flux-Residual
  Residual-Control   Outer-Iter.   Inner-Iter.     Column Row Layer    Maximum-Head-Change  Column Row Layer    Maximum-Flux-Residual          L2-NORM 
          0                 1           2             4    7     1      -0.1261891180E-01       4    7    1        -0.6616620729E+00      0.1614054573E+01
          0                 2           2             5    8     1      -0.3363881711E-02       5    8    1        -0.1871067578E+00      0.2468267278E+00
          0                 3           2             5    8     1       0.3272133209E-03       5    8    1         0.1867110086E-01      0.2243841695E-01
          0                 4           1             5    8     1      -0.2228202029E-04       5    8    1        -0.1304293988E-02      0.1460196333E-02

    ------------------------------------------------
       NWT REQUIRED            4 OUTER ITERATIONS 
       AND A TOTAL OF          7 INNER ITERATIONS.
    ------------------------------------------------

 NO OUTPUT CONTROL FOR STRESS PERIOD   42   TIME STEP    1
 
 SOLVING FOR HEAD 
                                                   Max.-Head-Change                         Max.-Flux-Residual
  Residual-Control   Outer-Iter.   Inner-Iter.     Column Row Layer    Maximum-Head-Change  Column Row Layer    Maximum-Flux-Residual          L2-NORM 
          0                 1           2             4    7     1      -0.1257498426E-01       4    7    1        -0.6596714554E+00      0.1589495480E+01
          0                 2           2             5    8     1      -0.3233318717E-02       5    8    1        -0.1799012294E+00      0.2384993215E+00
          0                 3           2             5    8     1       0.3145131518E-03       5    8    1         0.1795037792E-01      0.2160792923E-01
          0                 4           1             5    8     1      -0.2141718539E-04       5    8    1        -0.1253831537E-02      0.1401830936E-02

    ------------------------------------------------
       NWT REQUIRED            4 OUTER ITERATIONS 
       AND A TOTAL OF          7 INNER ITERATIONS.
    ------------------------------------------------

 NO OUTPUT CONTROL FOR STRESS PERIOD   42   TIME STEP    2
 
 SOLVING FOR HEAD 
                                                   Max.-Head-Change                         Max.-Flux-Residual
  Residual-Control   Outer-Iter.   Inner-Iter.     Column Row Layer    Maximum-Head-Change  Column Row Layer    Maximum-Flux-Residual          L2-NORM 
          0                 1           2             4    7     1      -0.1246717319E-01       4    7    1        -0.6537941367E+00      0.1554821701E+01
          0                 2           2             5    8     1      -0.3214009989E-02       5    8    1        -0.1788270488E+00      0.2373938446E+00
          0                 3           2             5    8     1       0.3126349448E-03       5    8    1         0.1784318562E-01      0.2157208621E-01
          0                 4           1             5    8     1      -0.2128928609E-04       5    8    1        -0.1246343370E-02      0.1403212950E-02

    ------------------------------------------------
       NWT REQUIRED            4 OUTER ITERATIONS 
       AND A TOTAL OF          7 INNER ITERATIONS.
    ------------------------------------------------

 NO OUTPUT CONTROL FOR STRESS PERIOD   42   TIME STEP    3
 
 SOLVING FOR HEAD 
                                                   Max.-Head-Change                         Max.-Flux-Residual
  Residual-Control   Outer-Iter.   Inner-Iter.     Column Row Layer    Maximum-Head-Change  Column Row Layer    Maximum-Flux-Residual          L2-NORM 
          0                 1           2             4    7     1      -0.1234824226E-01       4    7    1        -0.6478334726E+00      0.1519779657E+01
          0                 2           2             5    8     1      -0.3261175958E-02       5    8    1        -0.1814209809E+00      0.2384303674E+00
          0                 3           2             5    8     1       0.3172228869E-03       5    8    1         0.1810290236E-01      0.2177329193E-01
          0                 4           1             5    8     1      -0.2160170806E-04       5    8    1        -0.1264545607E-02      0.1422470370E-02

    ------------------------------------------------
       NWT REQUIRED            4 OUTER ITERATIONS 
       AND A TOTAL OF          7 INNER ITERATIONS.
    ------------------------------------------------

 NO OUTPUT CONTROL FOR STRESS PERIOD   42   TIME STEP    4
 
 SOLVING FOR HEAD 
                                                   Max.-Head-Change                         Max.-Flux-Residual
  Residual-Control   Outer-Iter.   Inner-Iter.     Column Row Layer    Maximum-Head-Change  Column Row Layer    Maximum-Flux-Residual          L2-NORM 
          0                 1           2             4    7     1      -0.1222568934E-01       4    7    1        -0.6416600206E+00      0.1486256346E+01
          0                 2           2             5    8     1      -0.3295647554E-02       5    8    1        -0.1833136351E+00      0.2389691881E+00
          0                 3           2             5    8     1       0.3205760184E-03       5    8    1         0.1829249658E-01      0.2191414337E-01
          0                 4           1             5    8     1      -0.2183004428E-04       5    8    1        -0.1277839637E-02      0.1436886932E-02

    ------------------------------------------------
       NWT REQUIRED            4 OUTER ITERATIONS 
       AND A TOTAL OF          7 INNER ITERATIONS.
    ------------------------------------------------

 NO OUTPUT CONTROL FOR STRESS PERIOD   42   TIME STEP    5
 
 SOLVING FOR HEAD 
                                                   Max.-Head-Change                         Max.-Flux-Residual
  Residual-Control   Outer-Iter.   Inner-Iter.     Column Row Layer    Maximum-Head-Change  Column Row Layer    Maximum-Flux-Residual          L2-NORM 
          0                 1           2             4    7     1      -0.1209995500E-01       4    7    1        -0.6352984270E+00      0.1454196224E+01
          0                 2           2             5    8     1      -0.3326372358E-02       5    8    1        -0.1849987246E+00      0.2394246038E+00
          0                 3           2             5    8     1       0.3235646905E-03       5    8    1         0.1846135336E-01      0.2204075928E-01
          0                 4           1             5    8     1      -0.2203356187E-04       5    8    1        -0.1289683303E-02      0.1449957592E-02

    ------------------------------------------------
       NWT REQUIRED            4 OUTER ITERATIONS 
       AND A TOTAL OF          7 INNER ITERATIONS.
    ------------------------------------------------

 NO OUTPUT CONTROL FOR STRESS PERIOD   42   TIME STEP    6
 
 SOLVING FOR HEAD 
                                                   Max.-Head-Change                         Max.-Flux-Residual
  Residual-Control   Outer-Iter.   Inner-Iter.     Column Row Layer    Maximum-Head-Change  Column Row Layer    Maximum-Flux-Residual          L2-NORM 
          0                 1           2             4    7     1      -0.1197118348E-01       4    7    1        -0.6287571758E+00      0.1423499437E+01
          0                 2           2             5    8     1      -0.3355493503E-02       5    8    1        -0.1865946144E+00      0.2398782897E+00
          0                 3           2             5    8     1       0.3263973708E-03       5    8    1         0.1862130917E-01      0.2216253739E-01
          0                 4           1             5    8     1      -0.2222645686E-04       5    8    1        -0.1300905199E-02      0.1462425073E-02

    ------------------------------------------------
       NWT REQUIRED            4 OUTER ITERATIONS 
       AND A TOTAL OF          7 INNER ITERATIONS.
    ------------------------------------------------

 NO OUTPUT CONTROL FOR STRESS PERIOD   42   TIME STEP    7
 
 SOLVING FOR HEAD 
                                                   Max.-Head-Change                         Max.-Flux-Residual
  Residual-Control   Outer-Iter.   Inner-Iter.     Column Row Layer    Maximum-Head-Change  Column Row Layer    Maximum-Flux-Residual          L2-NORM 
          0                 1           2             4    7     1      -0.1183991462E-01       4    7    1        -0.6220657766E+00      0.1394091623E+01
          0                 2           2             5    8     1      -0.3383133580E-02       5    8    1        -0.1881082051E+00      0.2403301362E+00
          0                 3           2             5    8     1       0.3290859841E-03       5    8    1         0.1877305016E-01      0.2227977130E-01
          0                 4           1             5    8     1      -0.2240954163E-04       5    8    1        -0.1311553072E-02      0.1474323670E-02

    ------------------------------------------------
       NWT REQUIRED            4 OUTER ITERATIONS 
       AND A TOTAL OF          7 INNER ITERATIONS.
    ------------------------------------------------

 NO OUTPUT CONTROL FOR STRESS PERIOD   42   TIME STEP    8
 
 SOLVING FOR HEAD 
                                                   Max.-Head-Change                         Max.-Flux-Residual
  Residual-Control   Outer-Iter.   Inner-Iter.     Column Row Layer    Maximum-Head-Change  Column Row Layer    Maximum-Flux-Residual          L2-NORM 
          0                 1           2             4    7     1      -0.1170664828E-01       4    7    1        -0.6152522186E+00      0.1365889433E+01
          0                 2           2             5    8     1      -0.3409369807E-02       5    8    1        -0.1895438107E+00      0.2407767277E+00
          0                 3           2             5    8     1       0.3316380414E-03       5    8    1         0.1891700626E-01      0.2239243924E-01
          0                 4           1             5    8     1      -0.2258332726E-04       5    8    1        -0.1321656916E-02      0.1485677473E-02

    ------------------------------------------------
       NWT REQUIRED            4 OUTER ITERATIONS 
       AND A TOTAL OF          7 INNER ITERATIONS.
    ------------------------------------------------

 NO OUTPUT CONTROL FOR STRESS PERIOD   42   TIME STEP    9
 
 SOLVING FOR HEAD 
                                                   Max.-Head-Change                         Max.-Flux-Residual
  Residual-Control   Outer-Iter.   Inner-Iter.     Column Row Layer    Maximum-Head-Change  Column Row Layer    Maximum-Flux-Residual          L2-NORM 
          0                 1           2             4    7     1      -0.1157145374E-01       4    7    1        -0.6083204409E+00      0.1338816755E+01
          0                 2           2             5    8     1      -0.3434300863E-02       5    8    1        -0.1909069843E+00      0.2412171071E+00
          0                 3           2             5    8     1       0.3340610407E-03       5    8    1         0.1905361051E-01      0.2250064728E-01
          0                 4           1             5    8     1      -0.2274832462E-04       5    8    1        -0.1331246851E-02      0.1496508388E-02

    ------------------------------------------------
       NWT REQUIRED            4 OUTER ITERATIONS 
       AND A TOTAL OF          7 INNER ITERATIONS.
    ------------------------------------------------

 NO OUTPUT CONTROL FOR STRESS PERIOD   42   TIME STEP   10
 
 SOLVING FOR HEAD 
                                                   Max.-Head-Change                         Max.-Flux-Residual
  Residual-Control   Outer-Iter.   Inner-Iter.     Column Row Layer    Maximum-Head-Change  Column Row Layer    Maximum-Flux-Residual          L2-NORM 
          0                 1           2             4    7     1      -0.1143492252E-01       4    7    1        -0.6013033400E+00      0.1312812347E+01
          0                 2           2             5    8     1      -0.3458015907E-02       5    8    1        -0.1922026694E+00      0.2416507892E+00
          0                 3           2             5    8     1       0.3363699579E-03       5    8    1         0.1918371426E-01      0.2260489557E-01
          0                 4           1             5    8     1      -0.2290555378E-04       5    8    1        -0.1340382437E-02      0.1506870429E-02

    ------------------------------------------------
       NWT REQUIRED            4 OUTER ITERATIONS 
       AND A TOTAL OF          7 INNER ITERATIONS.
    ------------------------------------------------

 NO OUTPUT CONTROL FOR STRESS PERIOD   42   TIME STEP   11
 
 SOLVING FOR HEAD 
                                                   Max.-Head-Change                         Max.-Flux-Residual
  Residual-Control   Outer-Iter.   Inner-Iter.     Column Row Layer    Maximum-Head-Change  Column Row Layer    Maximum-Flux-Residual          L2-NORM 
          0                 1           2             4    7     1      -0.1129708060E-01       4    7    1        -0.5942022822E+00      0.1287817108E+01
          0                 2           2             5    8     1      -0.3480572590E-02       5    8    1        -0.1934341837E+00      0.2420762646E+00
          0                 3           2             5    8     1       0.3385640976E-03       5    8    1         0.1930728770E-01      0.2270497135E-01
          0                 4           1             5    8     1      -0.2305496632E-04       5    8    1        -0.1349061278E-02      0.1516765361E-02

    ------------------------------------------------
       NWT REQUIRED            4 OUTER ITERATIONS 
       AND A TOTAL OF          7 INNER ITERATIONS.
    ------------------------------------------------

 NO OUTPUT CONTROL FOR STRESS PERIOD   42   TIME STEP   12
 
 SOLVING FOR HEAD 
                                                   Max.-Head-Change                         Max.-Flux-Residual
  Residual-Control   Outer-Iter.   Inner-Iter.     Column Row Layer    Maximum-Head-Change  Column Row Layer    Maximum-Flux-Residual          L2-NORM 
          0                 1           2             4    7     1      -0.1115847630E-01       4    7    1        -0.5870479172E+00      0.1263775507E+01
          0                 2           2             5    8     1      -0.3502061852E-02       5    8    1        -0.1946065400E+00      0.2424935706E+00
          0                 3           2             5    8     1       0.3406544071E-03       5    8    1         0.1942495157E-01      0.2280118715E-01
          0                 4           1             5    8     1      -0.2319730897E-04       5    8    1        -0.1357326893E-02      0.1526224837E-02

    ------------------------------------------------
       NWT REQUIRED            4 OUTER ITERATIONS 
       AND A TOTAL OF          7 INNER ITERATIONS.
    ------------------------------------------------

 NO OUTPUT CONTROL FOR STRESS PERIOD   42   TIME STEP   13
 
 SOLVING FOR HEAD 
                                                   Max.-Head-Change                         Max.-Flux-Residual
  Residual-Control   Outer-Iter.   Inner-Iter.     Column Row Layer    Maximum-Head-Change  Column Row Layer    Maximum-Flux-Residual          L2-NORM 
          0                 1           2             4    7     1      -0.1101908968E-01       4    7    1        -0.5798393735E+00      0.1240631565E+01
          0                 2           2             5    8     1      -0.3522535856E-02       5    8    1        -0.1957227067E+00      0.2429015567E+00
          0                 3           2             5    8     1       0.3426459598E-03       5    8    1         0.1953700010E-01      0.2289364716E-01
          0                 4           1             5    8     1      -0.2333292642E-04       5    8    1        -0.1365199678E-02      0.1535270298E-02

    ------------------------------------------------
       NWT REQUIRED            4 OUTER ITERATIONS 
       AND A TOTAL OF          7 INNER ITERATIONS.
    ------------------------------------------------

 NO OUTPUT CONTROL FOR STRESS PERIOD   42   TIME STEP   14
 
 SOLVING FOR HEAD 
                                                   Max.-Head-Change                         Max.-Flux-Residual
  Residual-Control   Outer-Iter.   Inner-Iter.     Column Row Layer    Maximum-Head-Change  Column Row Layer    Maximum-Flux-Residual          L2-NORM 
          0                 1           2             4    7     1      -0.1087929511E-01       4    7    1        -0.5725975929E+00      0.1218337480E+01
          0                 2           2             5    8     1      -0.3542049143E-02       5    8    1        -0.1967857005E+00      0.2432995496E+00
          0                 3           2             5    8     1       0.3445440611E-03       5    8    1         0.1964373482E-01      0.2298245557E-01
          0                 4           1             5    8     1      -0.2346217996E-04       5    8    1        -0.1372700711E-02      0.1543916541E-02

    ------------------------------------------------
       NWT REQUIRED            4 OUTER ITERATIONS 
       AND A TOTAL OF          7 INNER ITERATIONS.
    ------------------------------------------------

 NO OUTPUT CONTROL FOR STRESS PERIOD   42   TIME STEP   15
 
 SOLVING FOR HEAD 
                                                   Max.-Head-Change                         Max.-Flux-Residual
  Residual-Control   Outer-Iter.   Inner-Iter.     Column Row Layer    Maximum-Head-Change  Column Row Layer    Maximum-Flux-Residual          L2-NORM 
          0                 1           2             4    7     1      -0.1073930913E-01       4    7    1        -0.5653346619E+00      0.1196846700E+01
          0                 2           2             5    8     1      -0.3560684773E-02       5    8    1        -0.1978001633E+00      0.2436892523E+00
          0                 3           2             5    8     1       0.3463567911E-03       5    8    1         0.1974561831E-01      0.2306798337E-01
          0                 4           1             5    8     1      -0.2358562022E-04       5    8    1        -0.1379862299E-02      0.1552204505E-02

    ------------------------------------------------
       NWT REQUIRED            4 OUTER ITERATIONS 
       AND A TOTAL OF          7 INNER ITERATIONS.
    ------------------------------------------------

 NO OUTPUT CONTROL FOR STRESS PERIOD   42   TIME STEP   16
 
 SOLVING FOR HEAD 
                                                   Max.-Head-Change                         Max.-Flux-Residual
  Residual-Control   Outer-Iter.   Inner-Iter.     Column Row Layer    Maximum-Head-Change  Column Row Layer    Maximum-Flux-Residual          L2-NORM 
          0                 1           2             4    7     1      -0.1059933564E-01       4    7    1        -0.5580618068E+00      0.1176127606E+01
          0                 2           2             5    8     1      -0.3578539382E-02       5    8    1        -0.1987683863E+00      0.2440218169E+00
          0                 3           2             5    8     1       0.3480935502E-03       5    8    1         0.1984297106E-01      0.2314725876E-01
          0                 4           1             5    8     1      -0.2370388716E-04       5    8    1        -0.1386713053E-02      0.1560002004E-02

    ------------------------------------------------
       NWT REQUIRED            4 OUTER ITERATIONS 
       AND A TOTAL OF          7 INNER ITERATIONS.
    ------------------------------------------------

 NO OUTPUT CONTROL FOR STRESS PERIOD   42   TIME STEP   17
 
 SOLVING FOR HEAD 
                                                   Max.-Head-Change                         Max.-Flux-Residual
  Residual-Control   Outer-Iter.   Inner-Iter.     Column Row Layer    Maximum-Head-Change  Column Row Layer    Maximum-Flux-Residual          L2-NORM 
          0                 1           2             4    7     1      -0.1045973528E-01       4    7    1        -0.5507923767E+00      0.1156211669E+01
          0                 2           2             5    8     1      -0.3595472480E-02       5    8    1        -0.1996921358E+00      0.2444372090E+00
          0                 3           2             5    8     1       0.3497406695E-03       5    8    1         0.1993568384E-01      0.2322865512E-01
          0                 4           1             5    8     1      -0.2381604993E-04       5    8    1        -0.1393225945E-02      0.1567662535E-02

    ------------------------------------------------
       NWT REQUIRED            4 OUTER ITERATIONS 
       AND A TOTAL OF          7 INNER ITERATIONS.
    ------------------------------------------------

 NO OUTPUT CONTROL FOR STRESS PERIOD   42   TIME STEP   18
 
 SOLVING FOR HEAD 
                                                   Max.-Head-Change                         Max.-Flux-Residual
  Residual-Control   Outer-Iter.   Inner-Iter.     Column Row Layer    Maximum-Head-Change  Column Row Layer    Maximum-Flux-Residual          L2-NORM 
          0                 1           2             4    7     1      -0.1032052455E-01       4    7    1        -0.5435372428E+00      0.1137056995E+01
          0                 2           2             5    8     1      -0.3611700804E-02       5    8    1        -0.2005741408E+00      0.2448037022E+00
          0                 3           2             5    8     1       0.3513192352E-03       5    8    1         0.2002430694E-01      0.2330514280E-01
          0                 4           1             5    8     1      -0.2392354445E-04       5    8    1        -0.1399458300E-02      0.1574973865E-02

    ------------------------------------------------
       NWT REQUIRED            4 OUTER ITERATIONS 
       AND A TOTAL OF          7 INNER ITERATIONS.
    ------------------------------------------------

 NO OUTPUT CONTROL FOR STRESS PERIOD   42   TIME STEP   19
 
 SOLVING FOR HEAD 
                                                   Max.-Head-Change                         Max.-Flux-Residual
  Residual-Control   Outer-Iter.   Inner-Iter.     Column Row Layer    Maximum-Head-Change  Column Row Layer    Maximum-Flux-Residual          L2-NORM 
          0                 1           2             4    7     1      -0.1018188999E-01       4    7    1        -0.5363045866E+00      0.1118548048E+01
          0                 2           2             5    8     1      -0.3627246060E-02       5    8    1        -0.2014184098E+00      0.2451613262E+00
          0                 3           2             5    8     1       0.3528313570E-03       5    8    1         0.2010915684E-01      0.2337891653E-01
          0                 4           1             5    8     1      -0.2402651425E-04       5    8    1        -0.1405426533E-02      0.1582000265E-02

    ------------------------------------------------
       NWT REQUIRED            4 OUTER ITERATIONS 
       AND A TOTAL OF          7 INNER ITERATIONS.
    ------------------------------------------------

 NO OUTPUT CONTROL FOR STRESS PERIOD   42   TIME STEP   20
 
 SOLVING FOR HEAD 
                                                   Max.-Head-Change                         Max.-Flux-Residual
  Residual-Control   Outer-Iter.   Inner-Iter.     Column Row Layer    Maximum-Head-Change  Column Row Layer    Maximum-Flux-Residual          L2-NORM 
          0                 1           2             4    7     1      -0.1004396615E-01       4    7    1        -0.5291018045E+00      0.1100661004E+01
          0                 2           2             5    8     1      -0.3642107148E-02       5    8    1        -0.2022249671E+00      0.2455086394E+00
          0                 3           2             5    8     1       0.3542769281E-03       5    8    1         0.2019023339E-01      0.2344981964E-01
          0                 4           1             5    8     1      -0.2412495258E-04       5    8    1        -0.1411130523E-02      0.1588734814E-02

    ------------------------------------------------
       NWT REQUIRED            4 OUTER ITERATIONS 
       AND A TOTAL OF          7 INNER ITERATIONS.
    ------------------------------------------------

 NO OUTPUT CONTROL FOR STRESS PERIOD   42   TIME STEP   21
 
 SOLVING FOR HEAD 
                                                   Max.-Head-Change                         Max.-Flux-Residual
  Residual-Control   Outer-Iter.   Inner-Iter.     Column Row Layer    Maximum-Head-Change  Column Row Layer    Maximum-Flux-Residual          L2-NORM 
          0                 1           2             4    7     1      -0.9906873700E-02       4    7    1        -0.5219358738E+00      0.1083367321E+01
          0                 2           2             5    8     1      -0.3656351631E-02       5    8    1        -0.2029975198E+00      0.2458470463E+00
          0                 3           2             5    8     1       0.3556625211E-03       5    8    1         0.2026790809E-01      0.2351800140E-01
          0                 4           1             5    8     1      -0.2421930628E-04       5    8    1        -0.1416596275E-02      0.1595173826E-02

    ------------------------------------------------
       NWT REQUIRED            4 OUTER ITERATIONS 
       AND A TOTAL OF          7 INNER ITERATIONS.
    ------------------------------------------------

 NO OUTPUT CONTROL FOR STRESS PERIOD   42   TIME STEP   22
 
 SOLVING FOR HEAD 
                                                   Max.-Head-Change                         Max.-Flux-Residual
  Residual-Control   Outer-Iter.   Inner-Iter.     Column Row Layer    Maximum-Head-Change  Column Row Layer    Maximum-Flux-Residual          L2-NORM 
          0                 1           2             4    7     1      -0.9770586795E-02       4    7    1        -0.5148057275E+00      0.1066637776E+01
          0                 2           2             5    8     1      -0.3669986301E-02       5    8    1        -0.2037364677E+00      0.2461749954E+00
          0                 3           2             5    8     1       0.3569887963E-03       5    8    1         0.2034222018E-01      0.2358356749E-01
          0                 4           1             5    8     1      -0.2430962104E-04       5    8    1        -0.1421826493E-02      0.1601345704E-02

    ------------------------------------------------
       NWT REQUIRED            4 OUTER ITERATIONS 
       AND A TOTAL OF          7 INNER ITERATIONS.
    ------------------------------------------------

 NO OUTPUT CONTROL FOR STRESS PERIOD   42   TIME STEP   23
 
 SOLVING FOR HEAD 
                                                   Max.-Head-Change                         Max.-Flux-Residual
  Residual-Control   Outer-Iter.   Inner-Iter.     Column Row Layer    Maximum-Head-Change  Column Row Layer    Maximum-Flux-Residual          L2-NORM 
          0                 1           2             4    7     1      -0.9635480486E-02       4    7    1        -0.5077319963E+00      0.1050465137E+01
          0                 2           2             5    8     1      -0.3683079342E-02       5    8    1        -0.2044455998E+00      0.2464959505E+00
          0                 3           2             5    8     1       0.3582623854E-03       5    8    1         0.2041091251E-01      0.2364419337E-01
          0                 4           1             5    8     1      -0.2439634747E-04       5    8    1        -0.1426484172E-02      0.1606881785E-02

    ------------------------------------------------
       NWT REQUIRED            4 OUTER ITERATIONS 
       AND A TOTAL OF          7 INNER ITERATIONS.
    ------------------------------------------------

 NO OUTPUT CONTROL FOR STRESS PERIOD   42   TIME STEP   24
 
 SOLVING FOR HEAD 
                                                   Max.-Head-Change                         Max.-Flux-Residual
  Residual-Control   Outer-Iter.   Inner-Iter.     Column Row Layer    Maximum-Head-Change  Column Row Layer    Maximum-Flux-Residual          L2-NORM 
          0                 1           2             4    7     1      -0.9501366954E-02       4    7    1        -0.5007048317E+00      0.1034785654E+01
          0                 2           2             5    8     1      -0.3695644526E-02       5    8    1        -0.2051256889E+00      0.2468075827E+00
          0                 3           2             5    8     1       0.3594846290E-03       5    8    1         0.2047958760E-01      0.2370533983E-01
          0                 4           1             5    8     1      -0.2447957801E-04       5    8    1        -0.1431336712E-02      0.1612621131E-02

    ------------------------------------------------
       NWT REQUIRED            4 OUTER ITERATIONS 
       AND A TOTAL OF          7 INNER ITERATIONS.
    ------------------------------------------------

 NO OUTPUT CONTROL FOR STRESS PERIOD   42   TIME STEP   25
 
 SOLVING FOR HEAD 
                                                   Max.-Head-Change                         Max.-Flux-Residual
  Residual-Control   Outer-Iter.   Inner-Iter.     Column Row Layer    Maximum-Head-Change  Column Row Layer    Maximum-Flux-Residual          L2-NORM 
          0                 1           2             4    7     1      -0.9368605476E-02       4    7    1        -0.4937437898E+00      0.1019608566E+01
          0                 2           2             5    8     1      -0.3707714773E-02       5    8    1        -0.2057785417E+00      0.2471116037E+00
          0                 3           2             5    8     1       0.3606587291E-03       5    8    1         0.2054552244E-01      0.2376448272E-01
          0                 4           1             5    8     1      -0.2455953026E-04       5    8    1        -0.1435996309E-02      0.1618150659E-02

    ------------------------------------------------
       NWT REQUIRED            4 OUTER ITERATIONS 
       AND A TOTAL OF          7 INNER ITERATIONS.
    ------------------------------------------------

 NO OUTPUT CONTROL FOR STRESS PERIOD   42   TIME STEP   26
 
 SOLVING FOR HEAD 
                                                   Max.-Head-Change                         Max.-Flux-Residual
  Residual-Control   Outer-Iter.   Inner-Iter.     Column Row Layer    Maximum-Head-Change  Column Row Layer    Maximum-Flux-Residual          L2-NORM 
          0                 1           2             4    7     1      -0.9237124110E-02       4    7    1        -0.4868455284E+00      0.1004903746E+01
          0                 2           2             5    8     1      -0.3719302373E-02       5    8    1        -0.2064048899E+00      0.2474071144E+00
          0                 3           2             5    8     1       0.3617858807E-03       5    8    1         0.2060879117E-01      0.2382140464E-01
          0                 4           1             5    8     1      -0.2463628471E-04       5    8    1        -0.1440468185E-02      0.1623471411E-02

    ------------------------------------------------
       NWT REQUIRED            4 OUTER ITERATIONS 
       AND A TOTAL OF          7 INNER ITERATIONS.
    ------------------------------------------------

 NO OUTPUT CONTROL FOR STRESS PERIOD   42   TIME STEP   27
 
 SOLVING FOR HEAD 
                                                   Max.-Head-Change                         Max.-Flux-Residual
  Residual-Control   Outer-Iter.   Inner-Iter.     Column Row Layer    Maximum-Head-Change  Column Row Layer    Maximum-Flux-Residual          L2-NORM 
          0                 1           2             4    7     1      -0.9106854060E-02       4    7    1        -0.4800063176E+00      0.9906515309E+00
          0                 2           2             5    8     1      -0.3730447599E-02       5    8    1        -0.2070069348E+00      0.2476949980E+00
          0                 3           2             5    8     1       0.3628700020E-03       5    8    1         0.2066961396E-01      0.2387647509E-01
          0                 4           1             5    8     1      -0.2471010925E-04       5    8    1        -0.1444767790E-02      0.1628600613E-02

    ------------------------------------------------
       NWT REQUIRED            4 OUTER ITERATIONS 
       AND A TOTAL OF          7 INNER ITERATIONS.
    ------------------------------------------------

 NO OUTPUT CONTROL FOR STRESS PERIOD   42   TIME STEP   28
 
 SOLVING FOR HEAD 
                                                   Max.-Head-Change                         Max.-Flux-Residual
  Residual-Control   Outer-Iter.   Inner-Iter.     Column Row Layer    Maximum-Head-Change  Column Row Layer    Maximum-Flux-Residual          L2-NORM 
          0                 1           2             4    7     1      -0.8978126275E-02       4    7    1        -0.4732445597E+00      0.9768395732E+00
          0                 2           2             5    8     1      -0.3741177295E-02       5    8    1        -0.2075861730E+00      0.2479766548E+00
          0                 3           2             5    8     1       0.3639137032E-03       5    8    1         0.2072814163E-01      0.2392980761E-01
          0                 4           1             5    8     1      -0.2478118164E-04       5    8    1        -0.1448905757E-02      0.1633551986E-02

    ------------------------------------------------
       NWT REQUIRED            4 OUTER ITERATIONS 
       AND A TOTAL OF          7 INNER ITERATIONS.
    ------------------------------------------------

 NO OUTPUT CONTROL FOR STRESS PERIOD   42   TIME STEP   29
 
 SOLVING FOR HEAD 
                                                   Max.-Head-Change                         Max.-Flux-Residual
  Residual-Control   Outer-Iter.   Inner-Iter.     Column Row Layer    Maximum-Head-Change  Column Row Layer    Maximum-Flux-Residual          L2-NORM 
          0                 1           2             4    7     1      -0.8850851283E-02       4    7    1        -0.4665554449E+00      0.9634489818E+00
          0                 2           2             5    8     1      -0.3751513464E-02       5    8    1        -0.2081438073E+00      0.2482514336E+00
          0                 3           2             5    8     1       0.3649191254E-03       5    8    1         0.2078449420E-01      0.2398139069E-01
          0                 4           1             5    8     1      -0.2484964720E-04       5    8    1        -0.1452890477E-02      0.1638329245E-02

    ------------------------------------------------
       NWT REQUIRED            4 OUTER ITERATIONS 
       AND A TOTAL OF          7 INNER ITERATIONS.
    ------------------------------------------------

 NO OUTPUT CONTROL FOR STRESS PERIOD   42   TIME STEP   30



 STREAM LISTING     PERIOD     42   STEP       30

 LAYER ROW COL. STREAM  RCH.  FLOW INTO     FLOW TO   FLOW OUT OF   OVRLND.     DIRECT     STREAM       STREAM     STREAM     STREAM   STREAMBED  STREAMBED
                SEG.NO.  NO.  STRM. RCH.    AQUIFER    STRM. RCH.    RUNOFF     PRECIP       ET          HEAD       DEPTH      WIDTH   CONDCTNC.   GRADIENT

   1    1    1     1     1    1.9000E+01  2.1427E-01   1.8786E+01  0.000E+00  0.000E+00  0.000E+00  1.09413E+03  1.082E+00  1.166E+01  5.249E-02  1.361E+00
   1    2    2     1     2    1.8786E+01  3.3054E-01   1.8455E+01  0.000E+00  0.000E+00  0.000E+00  1.08914E+03  1.077E+00  1.158E+01  8.107E-02  1.359E+00
   1    3    3     1     3    1.8455E+01  2.8064E-01   1.8175E+01  0.000E+00  0.000E+00  0.000E+00  1.08349E+03  1.072E+00  1.149E+01  6.892E-02  1.357E+00
   1    3    4     1     4    1.8175E+01  2.5740E-01   1.7917E+01  0.000E+00  0.000E+00  0.000E+00  1.07848E+03  1.068E+00  1.140E+01  6.328E-02  1.356E+00
   1    4    5     2     1    1.5917E+01  3.0542E-01   1.5612E+01  0.000E+00  0.000E+00  0.000E+00  1.07285E+03  9.157E-01  1.200E+01  7.800E-02  1.305E+00
   1    5    6     2     2    1.5612E+01  2.3438E-01   1.5377E+01  0.000E+00  0.000E+00  0.000E+00  1.06742E+03  9.063E-01  1.200E+01  6.000E-02  1.302E+00
   1    6    6     2     3    1.5377E+01  2.3388E-01   1.5143E+01  0.000E+00  0.000E+00  0.000E+00  1.06269E+03  8.980E-01  1.200E+01  6.000E-02  1.299E+00
   1    7    6     2     4    1.5143E+01  2.3338E-01   1.4910E+01  0.000E+00  0.000E+00  0.000E+00  1.05797E+03  8.897E-01  1.200E+01  6.000E-02  1.297E+00
   1    8    6     2     5    1.4910E+01  2.3289E-01   1.4677E+01  0.000E+00  0.000E+00  0.000E+00  1.05324E+03  8.814E-01  1.200E+01  6.000E-02  1.294E+00
   1    3    5     3     1    2.0000E+00  2.8252E-01   1.7175E+00  0.000E+00  0.000E+00  0.000E+00  1.07555E+03  1.909E+00  9.636E+00  7.227E-02  1.955E+00
   1    3    6     3     2    1.7175E+00  2.4905E-01   1.4684E+00  0.000E+00  0.000E+00  0.000E+00  1.07264E+03  1.727E+00  8.909E+00  6.682E-02  1.864E+00
   1    3    7     3     3    1.4684E+00  1.9718E-01   1.2712E+00  0.000E+00  0.000E+00  0.000E+00  1.06987E+03  1.555E+00  8.218E+00  5.547E-02  1.777E+00
   1    4    8     3     4    1.2712E+00  2.2567E-01   1.0456E+00  0.000E+00  0.000E+00  0.000E+00  1.06682E+03  1.364E+00  7.455E+00  6.709E-02  1.682E+00
   1    5    8     3     5    1.0456E+00  1.5790E-01   8.8768E-01  0.000E+00  0.000E+00  0.000E+00  1.06362E+03  1.164E+00  6.655E+00  4.991E-02  1.582E+00
   1    6    8     3     6    8.8768E-01  5.5980E-02   8.3170E-01  0.000E+00  0.000E+00  0.000E+00  1.06158E+03  1.036E+00  6.145E+00  1.844E-02  1.518E+00
   1    5   10     4     1    1.0000E+01  9.0919E-02   9.9091E+00  0.000E+00  0.000E+00  0.000E+00  1.07836E+03  6.368E-01  1.000E+01  2.500E-02  1.212E+00
   1    5    9     4     2    9.9091E+00  1.8158E-01   9.7275E+00  0.000E+00  0.000E+00  0.000E+00  1.07154E+03  6.315E-01  1.000E+01  5.000E-02  1.211E+00
   1    6    8     4     3    9.7275E+00  1.2689E-01   9.6006E+00  0.000E+00  0.000E+00  0.000E+00  1.06381E+03  6.256E-01  1.000E+01  3.500E-02  1.209E+00
   1    6    8     5     1    1.0432E+01  2.2686E-01   1.0205E+01  0.000E+00  0.000E+00  0.000E+00  1.05868E+03  6.790E-01  1.542E+01  6.166E-02  1.226E+00
   1    7    7     5     2    1.0205E+01  2.7894E-01   9.9265E+00  0.000E+00  0.000E+00  0.000E+00  1.05417E+03  6.732E-01  1.519E+01  7.594E-02  1.224E+00
   1    8    7     5     3    9.9265E+00  1.9221E-01   9.7343E+00  0.000E+00  0.000E+00  0.000E+00  1.04992E+03  6.676E-01  1.497E+01  5.241E-02  1.223E+00
   1    8    6     5     4    9.7343E+00  1.3577E-01   9.5985E+00  0.000E+00  0.000E+00  0.000E+00  1.04691E+03  6.637E-01  1.482E+01  3.706E-02  1.221E+00
   1    9    6     6     1    2.4276E+01  2.5176E-01   2.4024E+01  0.000E+00  0.000E+00  0.000E+00  1.04392E+03  1.196E+00  1.200E+01  6.000E-02  1.399E+00
   1   10    7     6     2    2.4024E+01  2.5131E-01   2.3773E+01  0.000E+00  0.000E+00  0.000E+00  1.03937E+03  1.188E+00  1.200E+01  6.000E-02  1.396E+00
   1   11    7     6     3    2.3773E+01  2.5086E-01   2.3522E+01  0.000E+00  0.000E+00  0.000E+00  1.03482E+03  1.181E+00  1.200E+01  6.000E-02  1.394E+00
   1   12    7     6     4    2.3522E+01  2.5041E-01   2.3271E+01  0.000E+00  0.000E+00  0.000E+00  1.03026E+03  1.173E+00  1.200E+01  6.000E-02  1.391E+00
   1   13    7     6     5    2.3271E+01  1.0844E-02   2.3261E+01  0.000E+00  0.000E+00  0.000E+00  1.02708E+03  1.170E+00  1.200E+01  2.400E-02  1.506E-01
   1   14    9     7     1    1.5000E+02  1.3695E+00   1.4863E+02  0.000E+00  0.000E+00  0.000E+00  1.03987E+03  2.288E+00  5.529E+01  5.593E-01  8.162E-01
   1   13    8     7     2    1.4863E+02  1.9677E+00   1.4666E+02  0.000E+00  0.000E+00  0.000E+00  1.03478E+03  2.279E+00  5.525E+01  6.147E-01  1.067E+00
   1   13    7     7     3    1.4666E+02  1.7095E+00   1.4495E+02  0.000E+00  0.000E+00  0.000E+00  1.02969E+03  2.269E+00  5.521E+01  5.584E-01  1.021E+00
   1   13    6     8     1    1.6821E+02  1.1437E+00   1.6707E+02  0.000E+00  0.000E+00  0.000E+00  1.02481E+03  2.937E+00  4.258E+01  4.339E-01  8.786E-01
   1   13    5     8     2    1.6707E+02  3.7951E-01   1.6669E+02  0.000E+00  0.000E+00  0.000E+00  1.01856E+03  2.932E+00  4.251E+01  4.332E-01  2.920E-01
   1   13    4     8     3    1.6669E+02 -1.7602E+00   1.6845E+02  0.000E+00  0.000E+00  0.000E+00  1.01231E+03  2.936E+00  4.258E+01  4.339E+00 -1.352E-01
   1   13    3     8     4    1.6845E+02 -3.3164E+00   1.7177E+02  0.000E+00  0.000E+00  0.000E+00  1.00608E+03  2.953E+00  4.282E+01  4.363E+00 -2.534E-01
   1   13    2     8     5    1.7177E+02 -2.4978E+00   1.7427E+02  0.000E+00  0.000E+00  0.000E+00  9.99847E+02  2.972E+00  4.309E+01  4.391E+00 -1.896E-01
   1   13    1     8     6    1.7427E+02 -1.9613E+00   1.7623E+02  0.000E+00  0.000E+00  0.000E+00  9.94861E+02  2.986E+00  4.330E+01  2.647E+00 -2.470E-01





UNSATURATED ZONE PACKAGE VOLUMETRIC BUDGET FOR  TIME STEP    30 STRESS PERIOD   42
  ------------------------------------------------------------------------------



     CUMULATIVE VOLUMES      L**3       RATES FOR THIS TIME STEP      L**3/T
     ------------------                 ------------------------

           IN:                                      IN:
           ---                                      ---
        INFILTRATION =  1913009883.3643          INFILTRATION =          11.6075

          OUT:                                     OUT:
          ----                                     ----
              UZF ET =  1570085427.2084                UZF ET =          11.6075
        UZF RECHARGE =   222367681.3653          UZF RECHARGE =           0.0084

            IN - OUT =   120556774.7906              IN - OUT =      -8.3830E-03

          STORAGE:                                 STORAGE:
          --------                                 --------
      STORAGE CHANGE =   120558284.0457        STORAGE CHANGE =      -8.3830E-03

 PERCENT DISCREPANCY IS DIFFERENCE BETWEEN IN-OUT MINUS CHANGE IN STORAGE
 DIVIDED BY THE AVERAGE OF IN AND OUT TIMES 100

 PERCENT DISCREPANCY =          -0.00     PERCENT DISCREPANCY =           0.00






1
  VOLUMETRIC BUDGET FOR AGRICULTURAL FIELDS AT TIME STEP   30, STRESS PERIOD  42
  ------------------------------------------------------------------------------

     CUMULATIVE VOLUMES      L**3       RATES FOR THIS TIME STEP      L**3/T
     ------------------                 ------------------------

           IN:                                      IN:
           ---                                      ---
               AG WELLS  =  1437674880.0000                 AG WELLS  =           7.2000
      DIVERSION SEGMENTS =           0.0000        DIVERSION SEGMENTS =           0.0000
           GW IRRIGATION =           0.0000             GW IRRIGATION =           0.0000
           SW IRRIGATION =           0.0000             SW IRRIGATION =           0.0000
        SYSTEM LOSSES GW =           0.0000          SYSTEM LOSSES GW =           0.0000
        SYSTEM LOSSES SW =           0.0000          SYSTEM LOSSES SW =           0.0000

                TOTAL IN =  1437674880.0000                  TOTAL IN =           7.2000

          OUT:                                     OUT:
          ----                                     ----
               AG WELLS  =           0.0000                 AG WELLS  =           0.0000
      DIVERSION SEGMENTS =           0.0000        DIVERSION SEGMENTS =           0.0000
           GW IRRIGATION =  1437674880.0000             GW IRRIGATION =           7.2000
           SW IRRIGATION =           0.0000             SW IRRIGATION =           0.0000
        SYSTEM LOSSES GW =           0.0000          SYSTEM LOSSES GW =           0.0000
        SYSTEM LOSSES SW =           0.0000          SYSTEM LOSSES SW =           0.0000

               TOTAL OUT =  1437674880.0000                 TOTAL OUT =           7.2000

                IN - OUT =           0.0000                  IN - OUT =           0.0000

     PERCENT DISCREPANCY =           0.00         PERCENT DISCREPANCY =           0.00



1
  VOLUMETRIC BUDGET FOR ENTIRE MODEL AT END OF TIME STEP   30, STRESS PERIOD  42
  ------------------------------------------------------------------------------

     CUMULATIVE VOLUMES      L**3       RATES FOR THIS TIME STEP      L**3/T
     ------------------                 ------------------------

           IN:                                      IN:
           ---                                      ---
             STORAGE     =  1887548672.0000               STORAGE     =           5.3506
       CONSTANT HEAD     =           0.0000         CONSTANT HEAD     =           0.0000
     HEAD DEP BOUNDS     =    30872700.0000       HEAD DEP BOUNDS     =           0.2881
      STREAM LEAKAGE     =  1321862656.0000        STREAM LEAKAGE     =          12.3094
        UZF RECHARGE     =   222367600.0000          UZF RECHARGE     =       8.3827E-03
               GW ET     =           0.0000                 GW ET     =           0.0000
     SURFACE LEAKAGE     =           0.0000       SURFACE LEAKAGE     =           0.0000
           AG WELLS      =           0.0000             AG WELLS      =           0.0000

                TOTAL IN =  3462651648.0000                  TOTAL IN =          17.9564

          OUT:                                     OUT:
          ----                                     ----
             STORAGE     =   876643968.0000               STORAGE     =           0.9317
       CONSTANT HEAD     =           0.0000         CONSTANT HEAD     =           0.0000
     HEAD DEP BOUNDS     =    31513022.0000       HEAD DEP BOUNDS     =           0.2889
      STREAM LEAKAGE     =  1099520768.0000        STREAM LEAKAGE     =           9.5357
        UZF RECHARGE     =           0.0000          UZF RECHARGE     =           0.0000
               GW ET     =    17288296.0000                 GW ET     =           0.0000
     SURFACE LEAKAGE     =           0.0000       SURFACE LEAKAGE     =           0.0000
           AG WELLS      =  1437674880.0000             AG WELLS      =           7.2000

               TOTAL OUT =  3462640896.0000                 TOTAL OUT =          17.9563

                IN - OUT =       10752.0000                  IN - OUT =       7.6294E-05

     PERCENT DISCREPANCY =           0.00         PERCENT DISCREPANCY =           0.00






         TIME SUMMARY AT END OF TIME STEP   30 IN STRESS PERIOD   42
                    SECONDS     MINUTES      HOURS       DAYS        YEARS
                    -----------------------------------------------------------
   TIME STEP LENGTH  87667.      1461.1      24.352      1.0147     2.77799E-03
 STRESS PERIOD TIME 2.63000E+06  43833.      730.56      30.440     8.33397E-02
         TOTAL TIME 1.07916E+08 1.79859E+06  29977.      1249.0      3.4196    
1
1
                            STRESS PERIOD NO.   43, LENGTH =   2630000.    
                            -----------------------------------------------

                              NUMBER OF TIME STEPS =    30

                               MULTIPLIER FOR DELT =     1.000

                            INITIAL TIME STEP SIZE =   87666.66    

 REUSING NON-PARAMETER GHB CELLS FROM LAST STRESS PERIOD

      2 GHB CELLS

 REUSING STREAM SEGMENT DATA FROM LAST STRESS PERIOD



            AREAL INFILTRATION RATE
 READING ON UNIT   19 WITH FORMAT: (10F4.0)            

            1           2           3           4           5           6           7           8           9          10
 ........................................................................................................................
   1   1.2000E-09   0.000       0.000       0.000       0.000       0.000       0.000       0.000       0.000       0.000    
   2   2.1000E-09  2.0000E-09  8.0000E-10  8.5000E-09   0.000       0.000       0.000       0.000       0.000       0.000    
   3   5.0000E-10  1.1000E-09  8.8000E-09  5.5000E-09   0.000       0.000       0.000       0.000       0.000       0.000    
   4   8.5000E-09  1.1000E-09  1.1000E-09  1.1000E-09  2.0000E-09   0.000       0.000       0.000       0.000       0.000    
   5   8.5000E-09  1.1000E-09  1.1000E-09  1.1000E-09  1.1000E-09   0.000       0.000       0.000       0.000       0.000    
   6   8.5000E-09  5.2000E-09  2.1000E-09  1.1000E-09  1.5000E-09   0.000       0.000       0.000       0.000       0.000    
   7   8.5000E-09  5.2000E-09  2.1000E-09  1.2000E-09  2.0000E-09   0.000       0.000       0.000       0.000       0.000    
   8   5.0000E-10  5.2000E-09  2.1000E-09  1.2000E-09  5.0000E-09   0.000       0.000       0.000       0.000       0.000    
   9   5.0000E-10  5.2000E-09  2.1000E-09  1.2000E-09  5.0000E-09   0.000       0.000       0.000       0.000       0.000    
  10   5.0000E-10  5.2000E-09  2.1000E-09  1.2000E-09  5.8000E-09   0.000       0.000       0.000       0.000       0.000    
  11   1.0000E-10  1.1000E-09  1.1000E-09  1.2000E-09  5.0000E-09   0.000       0.000       0.000       0.000       0.000    
  12   1.1000E-09  1.1000E-09  1.1000E-09  1.1000E-09  2.0000E-09   0.000       0.000       0.000       0.000       0.000    
  13   1.1000E-09  2.2000E-09  2.2000E-09  2.1000E-09  1.0000E-09   0.000       0.000       0.000       0.000       0.000    
  14   2.0000E-10  5.5000E-09  5.5000E-09  5.2000E-09  1.0000E-09   0.000       0.000       0.000       0.000       0.000    
  15    0.000      8.8000E-09  8.8000E-09   0.000       0.000       0.000       0.000       0.000       0.000       0.000    

                  ET RATE =  1.500000E-07

 USING ET EXTINCTION DEPTH FROM PREVIOUS STRESS PERIOD. CURRENT PERIOD IS:      43

 USING EXTINCTION WATER CONTENT FROM PREVIOUS STRESS PERIOD. CURRENT PERIOD IS:      43

 USING AIR ENTRY PRESSURE FROM PREVIOUS STRESS PERIOD. CURRENT PERIOD IS:      43

 USING ROOT PRESSURE HEAD FROM PREVIOUS STRESS PERIOD. CURRENT PERIOD IS:      43

 USING ROOT ACTIVITY FROM PREVIOUS STRESS PERIOD. CURRENT PERIOD IS:      43

 PROCESSING AG STRESS PERIOD DATA

 READING AG STRESS PERIOD DATA

 READING IRRIGATION WELL

 END PROCESSING AG STRESS PERIOD DATA OPTIONS
 
 SOLVING FOR HEAD 
                                                   Max.-Head-Change                         Max.-Flux-Residual
  Residual-Control   Outer-Iter.   Inner-Iter.     Column Row Layer    Maximum-Head-Change  Column Row Layer    Maximum-Flux-Residual          L2-NORM 
          0                 1           2             4    7     1      -0.5661050686E-01       4    7    1        -0.2959941776E+01      0.6892718432E+01
          0                 2           2             4    7     1       0.5504886622E-02       4    7    1         0.2959922833E+00      0.6227890778E+00
          0                 3           2             4    7     1      -0.3748669772E-03       4    7    1        -0.2071972402E-01      0.4359586847E-01
          0                 4           1             4    7     1       0.1491210253E-04       4    7    1         0.8471993926E-03      0.1782510771E-02

    ------------------------------------------------
       NWT REQUIRED            4 OUTER ITERATIONS 
       AND A TOTAL OF          7 INNER ITERATIONS.
    ------------------------------------------------

 NO OUTPUT CONTROL FOR STRESS PERIOD   43   TIME STEP    1
 
 SOLVING FOR HEAD 
                                                   Max.-Head-Change                         Max.-Flux-Residual
  Residual-Control   Outer-Iter.   Inner-Iter.     Column Row Layer    Maximum-Head-Change  Column Row Layer    Maximum-Flux-Residual          L2-NORM 
          0                 1           2             4    7     1      -0.5630731727E-01       4    7    1        -0.2945274341E+01      0.6823419765E+01
          0                 2           2             4    7     1       0.5475160319E-02       4    7    1         0.2945079623E+00      0.6175758221E+00
          0                 3           2             4    7     1      -0.3728385527E-03       4    7    1        -0.2061558464E-01      0.4323071964E-01
          0                 4           1             4    7     1       0.1483552736E-04       4    7    1         0.8431784950E-03      0.1767905856E-02

    ------------------------------------------------
       NWT REQUIRED            4 OUTER ITERATIONS 
       AND A TOTAL OF          7 INNER ITERATIONS.
    ------------------------------------------------

 NO OUTPUT CONTROL FOR STRESS PERIOD   43   TIME STEP    2
 
 SOLVING FOR HEAD 
                                                   Max.-Head-Change                         Max.-Flux-Residual
  Residual-Control   Outer-Iter.   Inner-Iter.     Column Row Layer    Maximum-Head-Change  Column Row Layer    Maximum-Flux-Residual          L2-NORM 
          0                 1           2             4    7     1      -0.5591356416E-01       4    7    1        -0.2925726476E+01      0.6705828690E+01
          0                 2           2             4    7     1       0.5436817831E-02       4    7    1         0.2925530322E+00      0.6059283452E+00
          0                 3           2             4    7     1      -0.3702275914E-03       4    7    1        -0.2047874083E-01      0.4241538927E-01
          0                 4           1             4    7     1       0.1473163472E-04       4    7    1         0.8375815714E-03      0.1734562711E-02

    ------------------------------------------------
       NWT REQUIRED            4 OUTER ITERATIONS 
       AND A TOTAL OF          7 INNER ITERATIONS.
    ------------------------------------------------

 NO OUTPUT CONTROL FOR STRESS PERIOD   43   TIME STEP    3
 
 SOLVING FOR HEAD 
                                                   Max.-Head-Change                         Max.-Flux-Residual
  Residual-Control   Outer-Iter.   Inner-Iter.     Column Row Layer    Maximum-Head-Change  Column Row Layer    Maximum-Flux-Residual          L2-NORM 
          0                 1           2             4    7     1      -0.5550405158E-01       4    7    1        -0.2905268183E+01      0.6593477867E+01
          0                 2           2             4    7     1       0.5396981106E-02       4    7    1         0.2905070766E+00      0.5958787471E+00
          0                 3           2             4    7     1      -0.3675148752E-03       4    7    1        -0.2033552506E-01      0.4171191456E-01
          0                 4           1             4    7     1       0.1462369661E-04       4    7    1         0.8317240313E-03      0.1705914202E-02

    ------------------------------------------------
       NWT REQUIRED            4 OUTER ITERATIONS 
       AND A TOTAL OF          7 INNER ITERATIONS.
    ------------------------------------------------

 NO OUTPUT CONTROL FOR STRESS PERIOD   43   TIME STEP    4
 
 SOLVING FOR HEAD 
                                                   Max.-Head-Change                         Max.-Flux-Residual
  Residual-Control   Outer-Iter.   Inner-Iter.     Column Row Layer    Maximum-Head-Change  Column Row Layer    Maximum-Flux-Residual          L2-NORM 
          0                 1           2             4    7     1      -0.5508026548E-01       4    7    1        -0.2883983406E+01      0.6486160753E+01
          0                 2           2             4    7     1       0.5355757011E-02       4    7    1         0.2883784883E+00      0.5863198801E+00
          0                 3           2             4    7     1      -0.3647076820E-03       4    7    1        -0.2018652484E-01      0.4104278824E-01
          0                 4           1             4    7     1       0.1451199590E-04       4    7    1         0.8256299209E-03      0.1678542962E-02

    ------------------------------------------------
       NWT REQUIRED            4 OUTER ITERATIONS 
       AND A TOTAL OF          7 INNER ITERATIONS.
    ------------------------------------------------

 NO OUTPUT CONTROL FOR STRESS PERIOD   43   TIME STEP    5
 
 SOLVING FOR HEAD 
                                                   Max.-Head-Change                         Max.-Flux-Residual
  Residual-Control   Outer-Iter.   Inner-Iter.     Column Row Layer    Maximum-Head-Change  Column Row Layer    Maximum-Flux-Residual          L2-NORM 
          0                 1           2             4    7     1      -0.5464403730E-01       4    7    1        -0.2861973154E+01      0.6383526194E+01
          0                 2           2             4    7     1       0.5313322847E-02       4    7    1         0.2861773670E+00      0.5771973630E+00
          0                 3           2             4    7     1      -0.3618180850E-03       4    7    1        -0.2003244716E-01      0.4040420775E-01
          0                 4           1             4    7     1       0.1439701600E-04       4    7    1         0.8193281251E-03      0.1652423978E-02

    ------------------------------------------------
       NWT REQUIRED            4 OUTER ITERATIONS 
       AND A TOTAL OF          7 INNER ITERATIONS.
    ------------------------------------------------

 NO OUTPUT CONTROL FOR STRESS PERIOD   43   TIME STEP    6
 
 SOLVING FOR HEAD 
                                                   Max.-Head-Change                         Max.-Flux-Residual
  Residual-Control   Outer-Iter.   Inner-Iter.     Column Row Layer    Maximum-Head-Change  Column Row Layer    Maximum-Flux-Residual          L2-NORM 
          0                 1           2             4    7     1      -0.5419655520E-01       4    7    1        -0.2839303157E+01      0.6285262645E+01
          0                 2           2             4    7     1       0.5269795194E-02       4    7    1         0.2839102845E+00      0.5685050687E+00
          0                 3           2             4    7     1      -0.3588540163E-03       4    7    1        -0.1987375209E-01      0.3979572890E-01
          0                 4           1             4    7     1       0.1427907112E-04       4    7    1         0.8128374884E-03      0.1627472293E-02

    ------------------------------------------------
       NWT REQUIRED            4 OUTER ITERATIONS 
       AND A TOTAL OF          7 INNER ITERATIONS.
    ------------------------------------------------

 NO OUTPUT CONTROL FOR STRESS PERIOD   43   TIME STEP    7
 
 SOLVING FOR HEAD 
                                                   Max.-Head-Change                         Max.-Flux-Residual
  Residual-Control   Outer-Iter.   Inner-Iter.     Column Row Layer    Maximum-Head-Change  Column Row Layer    Maximum-Flux-Residual          L2-NORM 
          0                 1           2             4    7     1      -0.5373917912E-01       4    7    1        -0.2816049605E+01      0.6191030406E+01
          0                 2           2             4    7     1       0.5225305083E-02       4    7    1         0.2815848587E+00      0.5601396413E+00
          0                 3           2             4    7     1      -0.3558244121E-03       4    7    1        -0.1971097286E-01      0.3921010810E-01
          0                 4           1             4    7     1       0.1415852031E-04       4    7    1         0.8061797948E-03      0.1603520508E-02

    ------------------------------------------------
       NWT REQUIRED            4 OUTER ITERATIONS 
       AND A TOTAL OF          7 INNER ITERATIONS.
    ------------------------------------------------

 NO OUTPUT CONTROL FOR STRESS PERIOD   43   TIME STEP    8
 
 SOLVING FOR HEAD 
                                                   Max.-Head-Change                         Max.-Flux-Residual
  Residual-Control   Outer-Iter.   Inner-Iter.     Column Row Layer    Maximum-Head-Change  Column Row Layer    Maximum-Flux-Residual          L2-NORM 
          0                 1           2             4    7     1      -0.5327331565E-01       4    7    1        -0.2792290392E+01      0.6100019166E+01
          0                 2           2             4    7     1       0.5179988692E-02       4    7    1         0.2792088781E+00      0.5521276389E+00
          0                 3           2             4    7     1      -0.3527385418E-03       4    7    1        -0.1954465469E-01      0.3864926521E-01
          0                 4           1             4    7     1       0.1403573247E-04       4    7    1         0.7993773686E-03      0.1580647009E-02

    ------------------------------------------------
       NWT REQUIRED            4 OUTER ITERATIONS 
       AND A TOTAL OF          7 INNER ITERATIONS.
    ------------------------------------------------

 NO OUTPUT CONTROL FOR STRESS PERIOD   43   TIME STEP    9
 
 SOLVING FOR HEAD 
                                                   Max.-Head-Change                         Max.-Flux-Residual
  Residual-Control   Outer-Iter.   Inner-Iter.     Column Row Layer    Maximum-Head-Change  Column Row Layer    Maximum-Flux-Residual          L2-NORM 
          0                 1           2             4    7     1      -0.5279988861E-01       4    7    1        -0.2768076537E+01      0.6012641733E+01
          0                 2           2             4    7     1       0.5133936722E-02       4    7    1         0.2767874436E+00      0.5444467440E+00
          0                 3           2             4    7     1      -0.3496025800E-03       4    7    1        -0.1937515465E-01      0.3811160320E-01
          0                 4           1             4    7     1       0.1391094981E-04       4    7    1         0.7924448219E-03      0.1558656931E-02

    ------------------------------------------------
       NWT REQUIRED            4 OUTER ITERATIONS 
       AND A TOTAL OF          7 INNER ITERATIONS.
    ------------------------------------------------

 NO OUTPUT CONTROL FOR STRESS PERIOD   43   TIME STEP   10
 
 SOLVING FOR HEAD 
                                                   Max.-Head-Change                         Max.-Flux-Residual
  Residual-Control   Outer-Iter.   Inner-Iter.     Column Row Layer    Maximum-Head-Change  Column Row Layer    Maximum-Flux-Residual          L2-NORM 
          0                 1           2             4    7     1      -0.5232015139E-01       4    7    1        -0.2743477842E+01      0.5928664052E+01
          0                 2           2             4    7     1       0.5087271079E-02       4    7    1         0.2743275345E+00      0.5370741355E+00
          0                 3           2             4    7     1      -0.3464248276E-03       4    7    1        -0.1920296129E-01      0.3759551677E-01
          0                 4           1             4    7     1       0.1378450206E-04       4    7    1         0.7854020971E-03      0.1537489018E-02

    ------------------------------------------------
       NWT REQUIRED            4 OUTER ITERATIONS 
       AND A TOTAL OF          7 INNER ITERATIONS.
    ------------------------------------------------

 NO OUTPUT CONTROL FOR STRESS PERIOD   43   TIME STEP   11
 
 SOLVING FOR HEAD 
                                                   Max.-Head-Change                         Max.-Flux-Residual
  Residual-Control   Outer-Iter.   Inner-Iter.     Column Row Layer    Maximum-Head-Change  Column Row Layer    Maximum-Flux-Residual          L2-NORM 
          0                 1           2             4    7     1      -0.5183528395E-01       4    7    1        -0.2718559291E+01      0.5847881933E+01
          0                 2           2             4    7     1       0.5040106527E-02       4    7    1         0.2718356485E+00      0.5299908023E+00
          0                 3           2             4    7     1      -0.3432131021E-03       4    7    1        -0.1902852946E-01      0.3709971144E-01
          0                 4           1             4    7     1       0.1365670455E-04       4    7    1         0.7782678285E-03      0.1517210434E-02

    ------------------------------------------------
       NWT REQUIRED            4 OUTER ITERATIONS 
       AND A TOTAL OF          7 INNER ITERATIONS.
    ------------------------------------------------

 NO OUTPUT CONTROL FOR STRESS PERIOD   43   TIME STEP   12
 
 SOLVING FOR HEAD 
                                                   Max.-Head-Change                         Max.-Flux-Residual
  Residual-Control   Outer-Iter.   Inner-Iter.     Column Row Layer    Maximum-Head-Change  Column Row Layer    Maximum-Flux-Residual          L2-NORM 
          0                 1           2             4    7     1      -0.5134598234E-01       4    7    1        -0.2693360127E+01      0.5770098228E+01
          0                 2           2             4    7     1       0.4992510761E-02       4    7    1         0.2693157091E+00      0.5231776857E+00
          0                 3           2             4    7     1      -0.3399720097E-03       4    7    1        -0.1885213385E-01      0.3662278849E-01
          0                 4           1             4    7     1       0.1352774011E-04       4    7    1         0.7710532259E-03      0.1497763276E-02

    ------------------------------------------------
       NWT REQUIRED            4 OUTER ITERATIONS 
       AND A TOTAL OF          7 INNER ITERATIONS.
    ------------------------------------------------

 NO OUTPUT CONTROL FOR STRESS PERIOD   43   TIME STEP   13
 
 SOLVING FOR HEAD 
                                                   Max.-Head-Change                         Max.-Flux-Residual
  Residual-Control   Outer-Iter.   Inner-Iter.     Column Row Layer    Maximum-Head-Change  Column Row Layer    Maximum-Flux-Residual          L2-NORM 
          0                 1           2             4    7     1      -0.5085329426E-01       4    7    1        -0.2667938378E+01      0.5695134748E+01
          0                 2           2             4    7     1       0.4944585687E-02       4    7    1         0.2667735184E+00      0.5166183733E+00
          0                 3           2             4    7     1      -0.3367084915E-03       4    7    1        -0.1867418056E-01      0.3616363391E-01
          0                 4           1             4    7     1       0.1339788170E-04       4    7    1         0.7637749275E-03      0.1478985369E-02

    ------------------------------------------------
       NWT REQUIRED            4 OUTER ITERATIONS 
       AND A TOTAL OF          7 INNER ITERATIONS.
    ------------------------------------------------

 NO OUTPUT CONTROL FOR STRESS PERIOD   43   TIME STEP   14
 
 SOLVING FOR HEAD 
                                                   Max.-Head-Change                         Max.-Flux-Residual
  Residual-Control   Outer-Iter.   Inner-Iter.     Column Row Layer    Maximum-Head-Change  Column Row Layer    Maximum-Flux-Residual          L2-NORM 
          0                 1           2             4    7     1      -0.5035792288E-01       4    7    1        -0.2642333745E+01      0.5622824860E+01
          0                 2           2             4    7     1       0.4896399691E-02       4    7    1         0.2642130458E+00      0.5102968451E+00
          0                 3           2             4    7     1      -0.3334272046E-03       4    7    1        -0.1849494748E-01      0.3572112361E-01
          0                 4           1             4    7     1       0.1326731618E-04       4    7    1         0.7564442806E-03      0.1460895503E-02

    ------------------------------------------------
       NWT REQUIRED            4 OUTER ITERATIONS 
       AND A TOTAL OF          7 INNER ITERATIONS.
    ------------------------------------------------

 NO OUTPUT CONTROL FOR STRESS PERIOD   43   TIME STEP   15
 
 SOLVING FOR HEAD 
                                                   Max.-Head-Change                         Max.-Flux-Residual
  Residual-Control   Outer-Iter.   Inner-Iter.     Column Row Layer    Maximum-Head-Change  Column Row Layer    Maximum-Flux-Residual          L2-NORM 
          0                 1           2             4    7     1      -0.4986078800E-01       4    7    1        -0.2616597307E+01      0.5553016963E+01
          0                 2           2             4    7     1       0.4848042241E-02       4    7    1         0.2616393988E+00      0.5041995369E+00
          0                 3           2             4    7     1      -0.3301342414E-03       4    7    1        -0.1831479212E-01      0.3529430715E-01
          0                 4           1             4    7     1       0.1313628439E-04       4    7    1         0.7490759208E-03      0.1443375446E-02

    ------------------------------------------------
       NWT REQUIRED            4 OUTER ITERATIONS 
       AND A TOTAL OF          7 INNER ITERATIONS.
    ------------------------------------------------

 NO OUTPUT CONTROL FOR STRESS PERIOD   43   TIME STEP   16
 
 SOLVING FOR HEAD 
                                                   Max.-Head-Change                         Max.-Flux-Residual
  Residual-Control   Outer-Iter.   Inner-Iter.     Column Row Layer    Maximum-Head-Change  Column Row Layer    Maximum-Flux-Residual          L2-NORM 
          0                 1           2             4    7     1      -0.4936261372E-01       4    7    1        -0.2590769446E+01      0.5485579511E+01
          0                 2           2             4    7     1       0.4799583758E-02       4    7    1         0.2590566147E+00      0.4983141564E+00
          0                 3           2             4    7     1      -0.3268343975E-03       4    7    1        -0.1813399712E-01      0.3488232734E-01
          0                 4           1             4    7     1       0.1300498240E-04       4    7    1         0.7416813951E-03      0.1426580700E-02

    ------------------------------------------------
       NWT REQUIRED            4 OUTER ITERATIONS 
       AND A TOTAL OF          7 INNER ITERATIONS.
    ------------------------------------------------

 NO OUTPUT CONTROL FOR STRESS PERIOD   43   TIME STEP   17
 
 SOLVING FOR HEAD 
                                                   Max.-Head-Change                         Max.-Flux-Residual
  Residual-Control   Outer-Iter.   Inner-Iter.     Column Row Layer    Maximum-Head-Change  Column Row Layer    Maximum-Flux-Residual          L2-NORM 
          0                 1           2             4    7     1      -0.4886393185E-01       4    7    1        -0.2564880396E+01      0.5420381263E+01
          0                 2           2             4    7     1       0.4751075966E-02       4    7    1         0.2564677166E+00      0.4926281210E+00
          0                 3           2             4    7     1      -0.3235311954E-03       4    7    1        -0.1795277411E-01      0.3448430222E-01
          0                 4           1             4    7     1       0.1287354502E-04       4    7    1         0.7342693643E-03      0.1410301231E-02

    ------------------------------------------------
       NWT REQUIRED            4 OUTER ITERATIONS 
       AND A TOTAL OF          7 INNER ITERATIONS.
    ------------------------------------------------

 NO OUTPUT CONTROL FOR STRESS PERIOD   43   TIME STEP   18
 
 SOLVING FOR HEAD 
                                                   Max.-Head-Change                         Max.-Flux-Residual
  Residual-Control   Outer-Iter.   Inner-Iter.     Column Row Layer    Maximum-Head-Change  Column Row Layer    Maximum-Flux-Residual          L2-NORM 
          0                 1           2             4    7     1      -0.4836549738E-01       4    7    1        -0.2538972351E+01      0.5357303973E+01
          0                 2           2             4    7     1       0.4702592302E-02       4    7    1         0.2538769234E+00      0.4871311850E+00
          0                 3           2             4    7     1      -0.3202296355E-03       4    7    1        -0.1777141838E-01      0.3409951713E-01
          0                 4           1             4    7     1       0.1274217291E-04       4    7    1         0.7268519071E-03      0.1394566692E-02

    ------------------------------------------------
       NWT REQUIRED            4 OUTER ITERATIONS 
       AND A TOTAL OF          7 INNER ITERATIONS.
    ------------------------------------------------

 NO OUTPUT CONTROL FOR STRESS PERIOD   43   TIME STEP   19
 
 SOLVING FOR HEAD 
                                                   Max.-Head-Change                         Max.-Flux-Residual
  Residual-Control   Outer-Iter.   Inner-Iter.     Column Row Layer    Maximum-Head-Change  Column Row Layer    Maximum-Flux-Residual          L2-NORM 
          0                 1           2             4    7     1      -0.4786774583E-01       4    7    1        -0.2513069840E+01      0.5296239179E+01
          0                 2           2             4    7     1       0.4654175123E-02       4    7    1         0.2512866875E+00      0.4818134888E+00
          0                 3           2             4    7     1      -0.3169326025E-03       4    7    1        -0.1759010163E-01      0.3372727126E-01
          0                 4           1             4    7     1       0.1261097903E-04       4    7    1         0.7194360489E-03      0.1379287701E-02

    ------------------------------------------------
       NWT REQUIRED            4 OUTER ITERATIONS 
       AND A TOTAL OF          7 INNER ITERATIONS.
    ------------------------------------------------

 NO OUTPUT CONTROL FOR STRESS PERIOD   43   TIME STEP   20
 
 SOLVING FOR HEAD 
                                                   Max.-Head-Change                         Max.-Flux-Residual
  Residual-Control   Outer-Iter.   Inner-Iter.     Column Row Layer    Maximum-Head-Change  Column Row Layer    Maximum-Flux-Residual          L2-NORM 
          0                 1           2             4    7     1      -0.4737133166E-01       4    7    1        -0.2487210058E+01      0.5237074657E+01
          0                 2           2             4    7     1       0.4605888078E-02       4    7    1         0.2487007280E+00      0.4766643286E+00
          0                 3           2             4    7     1      -0.3136444301E-03       4    7    1        -0.1740908419E-01      0.3336682513E-01
          0                 4           1             4    7     1       0.1248013927E-04       4    7    1         0.7120324083E-03      0.1364547585E-02

    ------------------------------------------------
       NWT REQUIRED            4 OUTER ITERATIONS 
       AND A TOTAL OF          7 INNER ITERATIONS.
    ------------------------------------------------

 NO OUTPUT CONTROL FOR STRESS PERIOD   43   TIME STEP   21
 
 SOLVING FOR HEAD 
                                                   Max.-Head-Change                         Max.-Flux-Residual
  Residual-Control   Outer-Iter.   Inner-Iter.     Column Row Layer    Maximum-Head-Change  Column Row Layer    Maximum-Flux-Residual          L2-NORM 
          0                 1           2             4    7     1      -0.4687673724E-01       4    7    1        -0.2461419632E+01      0.5179737169E+01
          0                 2           2             4    7     1       0.4557778088E-02       4    7    1         0.2461217072E+00      0.4716775949E+00
          0                 3           2             4    7     1      -0.3103683147E-03       4    7    1        -0.1722855244E-01      0.3301774998E-01
          0                 4           1             4    7     1       0.1234978179E-04       4    7    1         0.7046486644E-03      0.1350320474E-02

    ------------------------------------------------
       NWT REQUIRED            4 OUTER ITERATIONS 
       AND A TOTAL OF          7 INNER ITERATIONS.
    ------------------------------------------------

 NO OUTPUT CONTROL FOR STRESS PERIOD   43   TIME STEP   22
 
 SOLVING FOR HEAD 
                                                   Max.-Head-Change                         Max.-Flux-Residual
  Residual-Control   Outer-Iter.   Inner-Iter.     Column Row Layer    Maximum-Head-Change  Column Row Layer    Maximum-Flux-Residual          L2-NORM 
          0                 1           2             4    7     1      -0.4638426204E-01       4    7    1        -0.2435716268E+01      0.5124122557E+01
          0                 2           2             4    7     1       0.4509874278E-02       4    7    1         0.2435513953E+00      0.4668435650E+00
          0                 3           2             4    7     1      -0.3071062389E-03       4    7    1        -0.1704863028E-01      0.3267936439E-01
          0                 4           1             4    7     1       0.1221998083E-04       4    7    1         0.6972898391E-03      0.1336480611E-02

    ------------------------------------------------
       NWT REQUIRED            4 OUTER ITERATIONS 
       AND A TOTAL OF          7 INNER ITERATIONS.
    ------------------------------------------------

 NO OUTPUT CONTROL FOR STRESS PERIOD   43   TIME STEP   23
 
 SOLVING FOR HEAD 
                                                   Max.-Head-Change                         Max.-Flux-Residual
  Residual-Control   Outer-Iter.   Inner-Iter.     Column Row Layer    Maximum-Head-Change  Column Row Layer    Maximum-Flux-Residual          L2-NORM 
          0                 1           2             4    7     1      -0.4589444569E-01       4    7    1        -0.2410130103E+01      0.5070153632E+01
          0                 2           2             4    7     1       0.4462229136E-02       4    7    1         0.2409928058E+00      0.4621558791E+00
          0                 3           2             4    7     1      -0.3038617771E-03       4    7    1        -0.1686952868E-01      0.3235121998E-01
          0                 4           1             4    7     1       0.1209087869E-04       4    7    1         0.6899645698E-03      0.1323012716E-02

    ------------------------------------------------
       NWT REQUIRED            4 OUTER ITERATIONS 
       AND A TOTAL OF          7 INNER ITERATIONS.
    ------------------------------------------------

 NO OUTPUT CONTROL FOR STRESS PERIOD   43   TIME STEP   24
 
 SOLVING FOR HEAD 
                                                   Max.-Head-Change                         Max.-Flux-Residual
  Residual-Control   Outer-Iter.   Inner-Iter.     Column Row Layer    Maximum-Head-Change  Column Row Layer    Maximum-Flux-Residual          L2-NORM 
          0                 1           2             4    7     1      -0.4540764789E-01       4    7    1        -0.2384681811E+01      0.5017757878E+01
          0                 2           2             4    7     1       0.4414877640E-02       4    7    1         0.2384480057E+00      0.4576075298E+00
          0                 3           2             4    7     1      -0.3006373109E-03       4    7    1        -0.1669139229E-01      0.3203283536E-01
          0                 4           1             4    7     1       0.1196257428E-04       4    7    1         0.6826787849E-03      0.1309992311E-02

    ------------------------------------------------
       NWT REQUIRED            4 OUTER ITERATIONS 
       AND A TOTAL OF          7 INNER ITERATIONS.
    ------------------------------------------------

 NO OUTPUT CONTROL FOR STRESS PERIOD   43   TIME STEP   25
 
 SOLVING FOR HEAD 
                                                   Max.-Head-Change                         Max.-Flux-Residual
  Residual-Control   Outer-Iter.   Inner-Iter.     Column Row Layer    Maximum-Head-Change  Column Row Layer    Maximum-Flux-Residual          L2-NORM 
          0                 1           2             4    7     1      -0.4492406532E-01       4    7    1        -0.2359382741E+01      0.4966859083E+01
          0                 2           2             4    7     1       0.4367838922E-02       4    7    1         0.2359181297E+00      0.4531920714E+00
          0                 3           2             4    7     1      -0.2974341439E-03       4    7    1        -0.1651430060E-01      0.3172375091E-01
          0                 4           1             4    7     1       0.1183511904E-04       4    7    1         0.6754357198E-03      0.1297396894E-02

    ------------------------------------------------
       NWT REQUIRED            4 OUTER ITERATIONS 
       AND A TOTAL OF          7 INNER ITERATIONS.
    ------------------------------------------------

 NO OUTPUT CONTROL FOR STRESS PERIOD   43   TIME STEP   26
 
 SOLVING FOR HEAD 
                                                   Max.-Head-Change                         Max.-Flux-Residual
  Residual-Control   Outer-Iter.   Inner-Iter.     Column Row Layer    Maximum-Head-Change  Column Row Layer    Maximum-Flux-Residual          L2-NORM 
          0                 1           2             4    7     1      -0.4444413112E-01       4    7    1        -0.2334257695E+01      0.4917389346E+01
          0                 2           2             4    7     1       0.4321155114E-02       4    7    1         0.2334056576E+00      0.4489032776E+00
          0                 3           2             4    7     1      -0.2942551428E-03       4    7    1        -0.1633842716E-01      0.3142352421E-01
          0                 4           1             4    7     1       0.1170862374E-04       4    7    1         0.6682424946E-03      0.1285120151E-02

    ------------------------------------------------
       NWT REQUIRED            4 OUTER ITERATIONS 
       AND A TOTAL OF          7 INNER ITERATIONS.
    ------------------------------------------------

 NO OUTPUT CONTROL FOR STRESS PERIOD   43   TIME STEP   27
 
 SOLVING FOR HEAD 
                                                   Max.-Head-Change                         Max.-Flux-Residual
  Residual-Control   Outer-Iter.   Inner-Iter.     Column Row Layer    Maximum-Head-Change  Column Row Layer    Maximum-Flux-Residual          L2-NORM 
          0                 1           2             4    7     1      -0.4396811626E-01       4    7    1        -0.2309321827E+01      0.4869301740E+01
          0                 2           2             4    7     1       0.4274852571E-02       4    7    1         0.2309121049E+00      0.4447373462E+00
          0                 3           2             4    7     1      -0.2911021098E-03       4    7    1        -0.1616387806E-01      0.3113191912E-01
          0                 4           1             4    7     1       0.1158316172E-04       4    7    1         0.6611034344E-03      0.1273192523E-02

    ------------------------------------------------
       NWT REQUIRED            4 OUTER ITERATIONS 
       AND A TOTAL OF          7 INNER ITERATIONS.
    ------------------------------------------------

 NO OUTPUT CONTROL FOR STRESS PERIOD   43   TIME STEP   28
 
 SOLVING FOR HEAD 
                                                   Max.-Head-Change                         Max.-Flux-Residual
  Residual-Control   Outer-Iter.   Inner-Iter.     Column Row Layer    Maximum-Head-Change  Column Row Layer    Maximum-Flux-Residual          L2-NORM 
          0                 1           2             4    7     1      -0.4349625522E-01       4    7    1        -0.2284589190E+01      0.4822516727E+01
          0                 2           2             4    7     1       0.4228954094E-02       4    7    1         0.2284388762E+00      0.4406871409E+00
          0                 3           2             4    7     1      -0.2879765882E-03       4    7    1        -0.1599075165E-01      0.3084839989E-01
          0                 4           1             4    7     1       0.1145879225E-04       4    7    1         0.6540225434E-03      0.1261553109E-02

    ------------------------------------------------
       NWT REQUIRED            4 OUTER ITERATIONS 
       AND A TOTAL OF          7 INNER ITERATIONS.
    ------------------------------------------------

 NO OUTPUT CONTROL FOR STRESS PERIOD   43   TIME STEP   29
 
 SOLVING FOR HEAD 
                                                   Max.-Head-Change                         Max.-Flux-Residual
  Residual-Control   Outer-Iter.   Inner-Iter.     Column Row Layer    Maximum-Head-Change  Column Row Layer    Maximum-Flux-Residual          L2-NORM 
          0                 1           2             4    7     1      -0.4302876671E-01       4    7    1        -0.2260071938E+01      0.4777000477E+01
          0                 2           2             4    7     1       0.4183480952E-02       4    7    1         0.2259871871E+00      0.4367494613E+00
          0                 3           2             4    7     1      -0.2848800303E-03       4    7    1        -0.1581913298E-01      0.3057275566E-01
          0                 4           1             4    7     1       0.1133557958E-04       4    7    1         0.6470033379E-03      0.1250323021E-02

    ------------------------------------------------
       NWT REQUIRED            4 OUTER ITERATIONS 
       AND A TOTAL OF          7 INNER ITERATIONS.
    ------------------------------------------------

 NO OUTPUT CONTROL FOR STRESS PERIOD   43   TIME STEP   30



 STREAM LISTING     PERIOD     43   STEP       30

 LAYER ROW COL. STREAM  RCH.  FLOW INTO     FLOW TO   FLOW OUT OF   OVRLND.     DIRECT     STREAM       STREAM     STREAM     STREAM   STREAMBED  STREAMBED
                SEG.NO.  NO.  STRM. RCH.    AQUIFER    STRM. RCH.    RUNOFF     PRECIP       ET          HEAD       DEPTH      WIDTH   CONDCTNC.   GRADIENT

   1    1    1     1     1    1.9000E+01  2.1427E-01   1.8786E+01  0.000E+00  0.000E+00  0.000E+00  1.09413E+03  1.082E+00  1.166E+01  5.249E-02  1.361E+00
   1    2    2     1     2    1.8786E+01  3.3054E-01   1.8455E+01  0.000E+00  0.000E+00  0.000E+00  1.08914E+03  1.077E+00  1.158E+01  8.107E-02  1.359E+00
   1    3    3     1     3    1.8455E+01  2.8064E-01   1.8175E+01  0.000E+00  0.000E+00  0.000E+00  1.08349E+03  1.072E+00  1.149E+01  6.892E-02  1.357E+00
   1    3    4     1     4    1.8175E+01  2.5740E-01   1.7917E+01  0.000E+00  0.000E+00  0.000E+00  1.07848E+03  1.068E+00  1.140E+01  6.328E-02  1.356E+00
   1    4    5     2     1    1.5917E+01  3.0542E-01   1.5612E+01  0.000E+00  0.000E+00  0.000E+00  1.07285E+03  9.157E-01  1.200E+01  7.800E-02  1.305E+00
   1    5    6     2     2    1.5612E+01  2.3438E-01   1.5377E+01  0.000E+00  0.000E+00  0.000E+00  1.06742E+03  9.063E-01  1.200E+01  6.000E-02  1.302E+00
   1    6    6     2     3    1.5377E+01  2.3388E-01   1.5143E+01  0.000E+00  0.000E+00  0.000E+00  1.06269E+03  8.980E-01  1.200E+01  6.000E-02  1.299E+00
   1    7    6     2     4    1.5143E+01  2.3338E-01   1.4910E+01  0.000E+00  0.000E+00  0.000E+00  1.05797E+03  8.897E-01  1.200E+01  6.000E-02  1.297E+00
   1    8    6     2     5    1.4910E+01  2.3289E-01   1.4677E+01  0.000E+00  0.000E+00  0.000E+00  1.05324E+03  8.814E-01  1.200E+01  6.000E-02  1.294E+00
   1    3    5     3     1    2.0000E+00  2.8252E-01   1.7175E+00  0.000E+00  0.000E+00  0.000E+00  1.07555E+03  1.909E+00  9.636E+00  7.227E-02  1.955E+00
   1    3    6     3     2    1.7175E+00  2.4905E-01   1.4684E+00  0.000E+00  0.000E+00  0.000E+00  1.07264E+03  1.727E+00  8.909E+00  6.682E-02  1.864E+00
   1    3    7     3     3    1.4684E+00  1.9718E-01   1.2712E+00  0.000E+00  0.000E+00  0.000E+00  1.06987E+03  1.555E+00  8.218E+00  5.547E-02  1.777E+00
   1    4    8     3     4    1.2712E+00  2.2567E-01   1.0456E+00  0.000E+00  0.000E+00  0.000E+00  1.06682E+03  1.364E+00  7.455E+00  6.709E-02  1.682E+00
   1    5    8     3     5    1.0456E+00  1.5790E-01   8.8768E-01  0.000E+00  0.000E+00  0.000E+00  1.06362E+03  1.164E+00  6.655E+00  4.991E-02  1.582E+00
   1    6    8     3     6    8.8768E-01  5.5980E-02   8.3170E-01  0.000E+00  0.000E+00  0.000E+00  1.06158E+03  1.036E+00  6.145E+00  1.844E-02  1.518E+00
   1    5   10     4     1    1.0000E+01  9.0919E-02   9.9091E+00  0.000E+00  0.000E+00  0.000E+00  1.07836E+03  6.368E-01  1.000E+01  2.500E-02  1.212E+00
   1    5    9     4     2    9.9091E+00  1.8158E-01   9.7275E+00  0.000E+00  0.000E+00  0.000E+00  1.07154E+03  6.315E-01  1.000E+01  5.000E-02  1.211E+00
   1    6    8     4     3    9.7275E+00  1.2689E-01   9.6006E+00  0.000E+00  0.000E+00  0.000E+00  1.06381E+03  6.256E-01  1.000E+01  3.500E-02  1.209E+00
   1    6    8     5     1    1.0432E+01  2.2686E-01   1.0205E+01  0.000E+00  0.000E+00  0.000E+00  1.05868E+03  6.790E-01  1.542E+01  6.166E-02  1.226E+00
   1    7    7     5     2    1.0205E+01  2.7894E-01   9.9265E+00  0.000E+00  0.000E+00  0.000E+00  1.05417E+03  6.732E-01  1.519E+01  7.594E-02  1.224E+00
   1    8    7     5     3    9.9265E+00  1.9221E-01   9.7343E+00  0.000E+00  0.000E+00  0.000E+00  1.04992E+03  6.676E-01  1.497E+01  5.241E-02  1.223E+00
   1    8    6     5     4    9.7343E+00  1.3577E-01   9.5985E+00  0.000E+00  0.000E+00  0.000E+00  1.04691E+03  6.637E-01  1.482E+01  3.706E-02  1.221E+00
   1    9    6     6     1    2.4276E+01  2.5176E-01   2.4024E+01  0.000E+00  0.000E+00  0.000E+00  1.04392E+03  1.196E+00  1.200E+01  6.000E-02  1.399E+00
   1   10    7     6     2    2.4024E+01  2.5131E-01   2.3773E+01  0.000E+00  0.000E+00  0.000E+00  1.03937E+03  1.188E+00  1.200E+01  6.000E-02  1.396E+00
   1   11    7     6     3    2.3773E+01  2.5086E-01   2.3522E+01  0.000E+00  0.000E+00  0.000E+00  1.03482E+03  1.181E+00  1.200E+01  6.000E-02  1.394E+00
   1   12    7     6     4    2.3522E+01  2.5041E-01   2.3271E+01  0.000E+00  0.000E+00  0.000E+00  1.03026E+03  1.173E+00  1.200E+01  6.000E-02  1.391E+00
   1   13    7     6     5    2.3271E+01  1.1116E-02   2.3260E+01  0.000E+00  0.000E+00  0.000E+00  1.02708E+03  1.170E+00  1.200E+01  2.400E-02  1.544E-01
   1   14    9     7     1    1.5000E+02  1.3716E+00   1.4863E+02  0.000E+00  0.000E+00  0.000E+00  1.03987E+03  2.288E+00  5.529E+01  5.593E-01  8.174E-01
   1   13    8     7     2    1.4863E+02  1.9731E+00   1.4666E+02  0.000E+00  0.000E+00  0.000E+00  1.03478E+03  2.279E+00  5.525E+01  6.147E-01  1.070E+00
   1   13    7     7     3    1.4666E+02  1.7158E+00   1.4494E+02  0.000E+00  0.000E+00  0.000E+00  1.02969E+03  2.269E+00  5.521E+01  5.584E-01  1.024E+00
   1   13    6     8     1    1.6820E+02  1.1479E+00   1.6705E+02  0.000E+00  0.000E+00  0.000E+00  1.02481E+03  2.937E+00  4.258E+01  4.339E-01  8.818E-01
   1   13    5     8     2    1.6705E+02  3.8187E-01   1.6667E+02  0.000E+00  0.000E+00  0.000E+00  1.01856E+03  2.932E+00  4.251E+01  4.332E-01  2.938E-01
   1   13    4     8     3    1.6667E+02 -1.7551E+00   1.6843E+02  0.000E+00  0.000E+00  0.000E+00  1.01231E+03  2.936E+00  4.257E+01  4.338E+00 -1.348E-01
   1   13    3     8     4    1.6843E+02 -3.3104E+00   1.7174E+02  0.000E+00  0.000E+00  0.000E+00  1.00608E+03  2.953E+00  4.281E+01  4.363E+00 -2.529E-01
   1   13    2     8     5    1.7174E+02 -2.4949E+00   1.7423E+02  0.000E+00  0.000E+00  0.000E+00  9.99846E+02  2.972E+00  4.309E+01  4.391E+00 -1.894E-01
   1   13    1     8     6    1.7423E+02 -1.9601E+00   1.7619E+02  0.000E+00  0.000E+00  0.000E+00  9.94861E+02  2.986E+00  4.329E+01  2.647E+00 -2.468E-01





UNSATURATED ZONE PACKAGE VOLUMETRIC BUDGET FOR  TIME STEP    30 STRESS PERIOD   43
  ------------------------------------------------------------------------------



     CUMULATIVE VOLUMES      L**3       RATES FOR THIS TIME STEP      L**3/T
     ------------------                 ------------------------

           IN:                                      IN:
           ---                                      ---
        INFILTRATION =  1982975228.5381          INFILTRATION =          26.6074

          OUT:                                     OUT:
          ----                                     ----
              UZF ET =  1640063130.9760                UZF ET =          26.6074
        UZF RECHARGE =   222390175.3394          UZF RECHARGE =           0.0086

            IN - OUT =   120521922.2227              IN - OUT =      -8.6461E-03

          STORAGE:                                 STORAGE:
          --------                                 --------
      STORAGE CHANGE =   120523431.2723        STORAGE CHANGE =      -8.6462E-03

 PERCENT DISCREPANCY IS DIFFERENCE BETWEEN IN-OUT MINUS CHANGE IN STORAGE
 DIVIDED BY THE AVERAGE OF IN AND OUT TIMES 100

 PERCENT DISCREPANCY =          -0.00     PERCENT DISCREPANCY =           0.00






1
  VOLUMETRIC BUDGET FOR AGRICULTURAL FIELDS AT TIME STEP   30, STRESS PERIOD  43
  ------------------------------------------------------------------------------

     CUMULATIVE VOLUMES      L**3       RATES FOR THIS TIME STEP      L**3/T
     ------------------                 ------------------------

           IN:                                      IN:
           ---                                      ---
               AG WELLS  =  1496049792.0000                 AG WELLS  =          22.1999
      DIVERSION SEGMENTS =           0.0000        DIVERSION SEGMENTS =           0.0000
           GW IRRIGATION =           0.0000             GW IRRIGATION =           0.0000
           SW IRRIGATION =           0.0000             SW IRRIGATION =           0.0000
        SYSTEM LOSSES GW =           0.0000          SYSTEM LOSSES GW =           0.0000
        SYSTEM LOSSES SW =           0.0000          SYSTEM LOSSES SW =           0.0000

                TOTAL IN =  1496049792.0000                  TOTAL IN =          22.1999

          OUT:                                     OUT:
          ----                                     ----
               AG WELLS  =           0.0000                 AG WELLS  =           0.0000
      DIVERSION SEGMENTS =           0.0000        DIVERSION SEGMENTS =           0.0000
           GW IRRIGATION =  1496049792.0000             GW IRRIGATION =          22.1999
           SW IRRIGATION =           0.0000             SW IRRIGATION =           0.0000
        SYSTEM LOSSES GW =           0.0000          SYSTEM LOSSES GW =           0.0000
        SYSTEM LOSSES SW =           0.0000          SYSTEM LOSSES SW =           0.0000

               TOTAL OUT =  1496049792.0000                 TOTAL OUT =          22.1999

                IN - OUT =           0.0000                  IN - OUT =           0.0000

     PERCENT DISCREPANCY =           0.00         PERCENT DISCREPANCY =           0.00



1
  VOLUMETRIC BUDGET FOR ENTIRE MODEL AT END OF TIME STEP   30, STRESS PERIOD  43
  ------------------------------------------------------------------------------

     CUMULATIVE VOLUMES      L**3       RATES FOR THIS TIME STEP      L**3/T
     ------------------                 ------------------------

           IN:                                      IN:
           ---                                      ---
             STORAGE     =  1939401856.0000               STORAGE     =          19.4387
       CONSTANT HEAD     =           0.0000         CONSTANT HEAD     =           0.0000
     HEAD DEP BOUNDS     =    31630470.0000       HEAD DEP BOUNDS     =           0.2882
      STREAM LEAKAGE     =  1354265344.0000        STREAM LEAKAGE     =          12.3300
        UZF RECHARGE     =   222390048.0000          UZF RECHARGE     =       8.6461E-03
               GW ET     =           0.0000                 GW ET     =           0.0000
     SURFACE LEAKAGE     =           0.0000       SURFACE LEAKAGE     =           0.0000
           AG WELLS      =           0.0000             AG WELLS      =           0.0000

                TOTAL IN =  3547687680.0000                  TOTAL IN =          32.0655

          OUT:                                     OUT:
          ----                                     ----
             STORAGE     =   877491520.0000               STORAGE     =       5.6273E-02
       CONSTANT HEAD     =           0.0000         CONSTANT HEAD     =           0.0000
     HEAD DEP BOUNDS     =    32272724.0000       HEAD DEP BOUNDS     =           0.2888
      STREAM LEAKAGE     =  1124576512.0000        STREAM LEAKAGE     =           9.5205
        UZF RECHARGE     =           0.0000          UZF RECHARGE     =           0.0000
               GW ET     =    17288296.0000                 GW ET     =           0.0000
     SURFACE LEAKAGE     =           0.0000       SURFACE LEAKAGE     =           0.0000
           AG WELLS      =  1496049792.0000             AG WELLS      =          22.1999

               TOTAL OUT =  3547678720.0000                 TOTAL OUT =          32.0656

                IN - OUT =        8960.0000                  IN - OUT =      -5.7220E-05

     PERCENT DISCREPANCY =           0.00         PERCENT DISCREPANCY =          -0.00






         TIME SUMMARY AT END OF TIME STEP   30 IN STRESS PERIOD   43
                    SECONDS     MINUTES      HOURS       DAYS        YEARS
                    -----------------------------------------------------------
   TIME STEP LENGTH  87667.      1461.1      24.352      1.0147     2.77799E-03
 STRESS PERIOD TIME 2.63000E+06  43833.      730.56      30.440     8.33397E-02
         TOTAL TIME 1.10545E+08 1.84242E+06  30707.      1279.5      3.5030    
1
1
                            STRESS PERIOD NO.   44, LENGTH =   2630000.    
                            -----------------------------------------------

                              NUMBER OF TIME STEPS =    30

                               MULTIPLIER FOR DELT =     1.000

                            INITIAL TIME STEP SIZE =   87666.66    

 REUSING NON-PARAMETER GHB CELLS FROM LAST STRESS PERIOD

      2 GHB CELLS

 REUSING STREAM SEGMENT DATA FROM LAST STRESS PERIOD



            AREAL INFILTRATION RATE
 READING ON UNIT   19 WITH FORMAT: (10F4.0)            

            1           2           3           4           5           6           7           8           9          10
 ........................................................................................................................
   1   1.2000E-09   0.000       0.000       0.000       0.000       0.000       0.000       0.000       0.000       0.000    
   2   2.1000E-09  2.0000E-09  8.0000E-10  8.5000E-09   0.000       0.000       0.000       0.000       0.000       0.000    
   3   5.0000E-10  1.1000E-09  8.8000E-09  5.5000E-09   0.000       0.000       0.000       0.000       0.000       0.000    
   4   8.5000E-09  1.1000E-09  1.1000E-09  1.1000E-09  2.0000E-09   0.000       0.000       0.000       0.000       0.000    
   5   8.5000E-09  1.1000E-09  1.1000E-09  1.1000E-09  1.1000E-09   0.000       0.000       0.000       0.000       0.000    
   6   8.5000E-09  5.2000E-09  2.1000E-09  1.1000E-09  1.5000E-09   0.000       0.000       0.000       0.000       0.000    
   7   8.5000E-09  5.2000E-09  2.1000E-09  1.2000E-09  2.0000E-09   0.000       0.000       0.000       0.000       0.000    
   8   5.0000E-10  5.2000E-09  2.1000E-09  1.2000E-09  5.0000E-09   0.000       0.000       0.000       0.000       0.000    
   9   5.0000E-10  5.2000E-09  2.1000E-09  1.2000E-09  5.0000E-09   0.000       0.000       0.000       0.000       0.000    
  10   5.0000E-10  5.2000E-09  2.1000E-09  1.2000E-09  5.8000E-09   0.000       0.000       0.000       0.000       0.000    
  11   1.0000E-10  1.1000E-09  1.1000E-09  1.2000E-09  5.0000E-09   0.000       0.000       0.000       0.000       0.000    
  12   1.1000E-09  1.1000E-09  1.1000E-09  1.1000E-09  2.0000E-09   0.000       0.000       0.000       0.000       0.000    
  13   1.1000E-09  2.2000E-09  2.2000E-09  2.1000E-09  1.0000E-09   0.000       0.000       0.000       0.000       0.000    
  14   2.0000E-10  5.5000E-09  5.5000E-09  5.2000E-09  1.0000E-09   0.000       0.000       0.000       0.000       0.000    
  15    0.000      8.8000E-09  8.8000E-09   0.000       0.000       0.000       0.000       0.000       0.000       0.000    

                  ET RATE =  4.000000E-07

 USING ET EXTINCTION DEPTH FROM PREVIOUS STRESS PERIOD. CURRENT PERIOD IS:      44

 USING EXTINCTION WATER CONTENT FROM PREVIOUS STRESS PERIOD. CURRENT PERIOD IS:      44

 USING AIR ENTRY PRESSURE FROM PREVIOUS STRESS PERIOD. CURRENT PERIOD IS:      44

 USING ROOT PRESSURE HEAD FROM PREVIOUS STRESS PERIOD. CURRENT PERIOD IS:      44

 USING ROOT ACTIVITY FROM PREVIOUS STRESS PERIOD. CURRENT PERIOD IS:      44

 PROCESSING AG STRESS PERIOD DATA

 READING AG STRESS PERIOD DATA

 READING IRRIGATION WELL

 END PROCESSING AG STRESS PERIOD DATA OPTIONS
 
 SOLVING FOR HEAD 
                                                   Max.-Head-Change                         Max.-Flux-Residual
  Residual-Control   Outer-Iter.   Inner-Iter.     Column Row Layer    Maximum-Head-Change  Column Row Layer    Maximum-Flux-Residual          L2-NORM 
          0                 1           2             4    7     1      -0.1622802230E+00       4    7    1        -0.8485781651E+01      0.1977284012E+02
          0                 2           2             6    7     1       0.1189107192E-02       5    8    1        -0.6724056896E-01      0.1886584566E+00
          0                 3           2             5    8     1      -0.1230751962E-01       5    8    1        -0.6594112939E+00      0.1591762935E+01
          0                 4           2             4    7     1      -0.9016812208E-02       5    7    1        -0.4996987641E+00      0.1197639434E+01
          0                 5           2             4    7     1      -0.7411985441E-02       5    7    1        -0.4104631105E+00      0.9882648463E+00
          0                 6           2             4    7     1      -0.6114258591E-02       5    7    1        -0.3385955840E+00      0.8146995660E+00
          0                 7           2             4    7     1      -0.5070214889E-02       5    7    1        -0.2807597979E+00      0.6755796322E+00
          0                 8           2             4    7     1      -0.4221185743E-02       5    7    1        -0.2337332479E+00      0.5624090232E+00
          0                 9           2             4    7     1      -0.3525452900E-02       5    7    1        -0.1952004860E+00      0.4696876434E+00
          0                10           2             4    7     1      -0.2951877353E-02       5    7    1        -0.1634381184E+00      0.3932558704E+00
                                                   Max.-Head-Change                         Max.-Flux-Residual
  Residual-Control   Outer-Iter.   Inner-Iter.     Column Row Layer    Maximum-Head-Change  Column Row Layer    Maximum-Flux-Residual          L2-NORM 
          0                11           2             4    7     1      -0.2476750427E-02       5    7    1        -0.1371267202E+00      0.3299448832E+00
          0                12           2             4    7     1      -0.2081611789E-02       5    7    1        -0.1152458467E+00      0.2772963197E+00
          0                13           2             4    7     1      -0.1751935041E-02       5    7    1        -0.9699227210E-01      0.2333737849E+00
          0                14           2             4    7     1      -0.1476194557E-02       5    7    1        -0.8172309521E-01      0.1966360781E+00
          0                15           2             4    7     1      -0.1245027419E-02       5    7    1        -0.6892458876E-01      0.1658407211E+00
          0                16           2             4    7     1      -0.1050897583E-02       5    7    1        -0.5817620930E-01      0.1399795805E+00
          0                17           2             4    7     1      -0.8876142682E-03       5    7    1        -0.4913770787E-01      0.1182287713E+00
          0                18           2             4    7     1      -0.7501227045E-03       5    7    1        -0.4152577553E-01      0.9991376479E-01
          0                19           2             4    7     1      -0.6342388580E-03       5    7    1        -0.3510925401E-01      0.8447683110E-01
          0                20           2             4    7     1      -0.5364696449E-03       5    7    1        -0.2969690199E-01      0.7145376079E-01
                                                   Max.-Head-Change                         Max.-Flux-Residual
  Residual-Control   Outer-Iter.   Inner-Iter.     Column Row Layer    Maximum-Head-Change  Column Row Layer    Maximum-Flux-Residual          L2-NORM 
          0                21           2             4    7     1      -0.4539147502E-03       5    7    1        -0.2512548269E-01      0.6045686968E-01
          0                22           2             4    7     1      -0.3841532248E-03       5    7    1        -0.2126596035E-01      0.5116671891E-01
          0                23           2             4    7     1      -0.3252072015E-03       5    7    1        -0.1800225574E-01      0.4331431479E-01
          0                24           2             4    7     1      -0.2753612824E-03       5    7    1        -0.1524259586E-01      0.3667510709E-01
          0                25           2             4    7     1      -0.2331984933E-03       5    7    1        -0.1290759884E-01      0.3105814836E-01
          0                26           2             4    7     1      -0.1975154358E-03       5    7    1        -0.1093265841E-01      0.2630586653E-01
          0                27           2             4    7     1      -0.1673065940E-03       5    7    1        -0.9261176005E-02      0.2228282503E-01
          0                28           2             4    7     1      -0.1417309837E-03       5    7    1        -0.7844821742E-02      0.1887644941E-01
          0                29           2             4    7     1      -0.1200801979E-03       5    7    1        -0.6646391330E-02      0.1599264673E-01
          0                30           1             4    7     1      -0.1017436231E-03       5    7    1        -0.5632050778E-02      0.1355025565E-01
          0                31           1             4    7     1      -0.8620987050E-04       5    7    1        -0.4771645693E-02      0.1148165000E-01

    ------------------------------------------------
       NWT REQUIRED           31 OUTER ITERATIONS 
       AND A TOTAL OF         60 INNER ITERATIONS.
    ------------------------------------------------

 NO OUTPUT CONTROL FOR STRESS PERIOD   44   TIME STEP    1
 
 SOLVING FOR HEAD 
                                                   Max.-Head-Change                         Max.-Flux-Residual
  Residual-Control   Outer-Iter.   Inner-Iter.     Column Row Layer    Maximum-Head-Change  Column Row Layer    Maximum-Flux-Residual          L2-NORM 
          0                 1           2             4    7     1      -0.1607455270E+00       4    7    1        -0.8410287414E+01      0.1935949201E+02
          0                 2           2             6    7     1       0.1476387993E-02       6    7    1         0.8141237855E-01      0.2247492050E+00
          0                 3           2             5    7     1      -0.1221977511E-01       4    7    1        -0.6478823328E+00      0.1575690871E+01
          0                 4           2             4    7     1      -0.9016784127E-02       4    7    1        -0.4991664311E+00      0.1142006493E+01
          0                 5           2             4    7     1      -0.7411613371E-02       4    7    1        -0.4100488831E+00      0.9495862076E+00
          0                 6           2             4    7     1      -0.6113968325E-02       4    7    1        -0.3382746924E+00      0.7823920757E+00
          0                 7           2             4    7     1      -0.5069990559E-02       4    7    1        -0.2805040578E+00      0.6490781070E+00
          0                 8           2             4    7     1      -0.4220999419E-02       4    7    1        -0.2335280954E+00      0.5404770087E+00
          0                 9           2             4    7     1      -0.3525297227E-02       4    7    1        -0.1950346216E+00      0.4514651163E+00
          0                10           2             4    7     1      -0.2951762516E-02       4    7    1        -0.1633015302E+00      0.3780613257E+00
                                                   Max.-Head-Change                         Max.-Flux-Residual
  Residual-Control   Outer-Iter.   Inner-Iter.     Column Row Layer    Maximum-Head-Change  Column Row Layer    Maximum-Flux-Residual          L2-NORM 
          0                11           2             4    7     1      -0.2476654754E-02       4    7    1        -0.1370148654E+00      0.3172407387E+00
          0                12           2             4    7     1      -0.2081515553E-02       4    7    1        -0.1151530851E+00      0.2666483066E+00
          0                13           2             4    7     1      -0.1751869140E-02       4    7    1        -0.9691517767E-01      0.2244338390E+00
          0                14           2             4    7     1      -0.1476122190E-02       4    7    1        -0.8165951736E-01      0.1891178969E+00
          0                15           2             4    7     1      -0.1244981632E-02       4    7    1        -0.6887189265E-01      0.1595118918E+00
          0                16           2             4    7     1      -0.1050858580E-02       4    7    1        -0.5813238272E-01      0.1346450305E+00
          0                17           2             4    7     1      -0.8875810833E-03       4    7    1        -0.4909947013E-01      0.1137279757E+00
          0                18           2             4    7     1      -0.7500947063E-03       4    7    1        -0.4149348179E-01      0.9611404013E-01
          0                19           2             4    7     1      -0.6342154801E-03       4    7    1        -0.3508291786E-01      0.8126761568E-01
          0                20           2             4    7     1      -0.5364498551E-03       4    7    1        -0.2967448554E-01      0.6874129461E-01
                                                   Max.-Head-Change                         Max.-Flux-Residual
  Residual-Control   Outer-Iter.   Inner-Iter.     Column Row Layer    Maximum-Head-Change  Column Row Layer    Maximum-Flux-Residual          L2-NORM 
          0                21           2             4    7     1      -0.4538983561E-03       4    7    1        -0.2510775941E-01      0.5816389182E-01
          0                22           2             4    7     1      -0.3841390134E-03       4    7    1        -0.2124871023E-01      0.4922669874E-01
          0                23           2             4    7     1      -0.3251950507E-03       4    7    1        -0.1798804706E-01      0.4167232799E-01
          0                24           2             4    7     1      -0.2753510653E-03       4    7    1        -0.1523078147E-01      0.3528548558E-01
          0                25           2             4    7     1      -0.2331901162E-03       4    7    1        -0.1289855301E-01      0.2988291516E-01
          0                26           2             4    7     1      -0.1975082745E-03       4    7    1        -0.1092475351E-01      0.2531047440E-01
          0                27           2             4    7     1      -0.1673003346E-03       4    7    1        -0.9253769870E-02      0.2143943280E-01
          0                28           2             4    7     1      -0.1417258266E-03       4    7    1        -0.7839103559E-02      0.1816215111E-01
          0                29           2             4    7     1      -0.1200758297E-03       4    7    1        -0.6641535226E-02      0.1538779484E-01
          0                30           1             4    7     1      -0.1017397562E-03       4    7    1        -0.5627287852E-02      0.1303804588E-01
          0                31           1             4    7     1      -0.8620671480E-04       4    7    1        -0.4768097491E-02      0.1104748460E-01

    ------------------------------------------------
       NWT REQUIRED           31 OUTER ITERATIONS 
       AND A TOTAL OF         60 INNER ITERATIONS.
    ------------------------------------------------

 NO OUTPUT CONTROL FOR STRESS PERIOD   44   TIME STEP    2
 
 SOLVING FOR HEAD 
                                                   Max.-Head-Change                         Max.-Flux-Residual
  Residual-Control   Outer-Iter.   Inner-Iter.     Column Row Layer    Maximum-Head-Change  Column Row Layer    Maximum-Flux-Residual          L2-NORM 
          0                 1           2             4    7     1      -0.1591287774E+00       4    7    1        -0.8330329220E+01      0.1889018043E+02
          0                 2           2             6    7     1       0.1749700698E-02       6    7    1         0.9669935995E-01      0.2818595680E+00
          0                 3           2             5    7     1      -0.1218576128E-01       4    7    1        -0.6473486667E+00      0.1570566618E+01
          0                 4           2             4    7     1      -0.9017247683E-02       4    7    1        -0.4991822940E+00      0.1142499210E+01
          0                 5           2             4    7     1      -0.7411616254E-02       4    7    1        -0.4100481711E+00      0.9495375339E+00
          0                 6           2             4    7     1      -0.6113986229E-02       4    7    1        -0.3382741877E+00      0.7823969069E+00
          0                 7           2             4    7     1      -0.5070004767E-02       4    7    1        -0.2805036864E+00      0.6490776206E+00
          0                 8           2             4    7     1      -0.4221011274E-02       4    7    1        -0.2335277806E+00      0.5404770536E+00
          0                 9           2             4    7     1      -0.3525307127E-02       4    7    1        -0.1950343603E+00      0.4514651087E+00
          0                10           2             4    7     1      -0.2951770805E-02       4    7    1        -0.1633013118E+00      0.3780613240E+00
                                                   Max.-Head-Change                         Max.-Flux-Residual
  Residual-Control   Outer-Iter.   Inner-Iter.     Column Row Layer    Maximum-Head-Change  Column Row Layer    Maximum-Flux-Residual          L2-NORM 
          0                11           2             4    7     1      -0.2476661709E-02       4    7    1        -0.1370146825E+00      0.3172407368E+00
          0                12           2             4    7     1      -0.2081521398E-02       4    7    1        -0.1151529316E+00      0.2666483051E+00
          0                13           2             4    7     1      -0.1751874060E-02       4    7    1        -0.9691504869E-01      0.2244338377E+00
          0                14           2             4    7     1      -0.1476126335E-02       4    7    1        -0.8165940881E-01      0.1891178958E+00
          0                15           2             4    7     1      -0.1244985128E-02       4    7    1        -0.6887180120E-01      0.1595118909E+00
          0                16           2             4    7     1      -0.1050861532E-02       4    7    1        -0.5813230559E-01      0.1346450297E+00
          0                17           2             4    7     1      -0.8875835760E-03       4    7    1        -0.4909940504E-01      0.1137279751E+00
          0                18           2             4    7     1      -0.7500968131E-03       4    7    1        -0.4149342682E-01      0.9611403957E-01
          0                19           2             4    7     1      -0.6342172607E-03       4    7    1        -0.3508287138E-01      0.8126761520E-01
          0                20           2             4    7     1      -0.5364513617E-03       4    7    1        -0.2967444627E-01      0.6874129422E-01
                                                   Max.-Head-Change                         Max.-Flux-Residual
  Residual-Control   Outer-Iter.   Inner-Iter.     Column Row Layer    Maximum-Head-Change  Column Row Layer    Maximum-Flux-Residual          L2-NORM 
          0                21           2             4    7     1      -0.4538996308E-03       4    7    1        -0.2510772619E-01      0.5816389148E-01
          0                22           2             4    7     1      -0.3841400917E-03       4    7    1        -0.2124868213E-01      0.4922669845E-01
          0                23           2             4    7     1      -0.3251959641E-03       4    7    1        -0.1798802329E-01      0.4167232776E-01
          0                24           2             4    7     1      -0.2753518386E-03       4    7    1        -0.1523076134E-01      0.3528548538E-01
          0                25           2             4    7     1      -0.2331907711E-03       4    7    1        -0.1289853597E-01      0.2988291499E-01
          0                26           2             4    7     1      -0.1975088292E-03       4    7    1        -0.1092473908E-01      0.2531047425E-01
          0                27           2             4    7     1      -0.1673008044E-03       4    7    1        -0.9253757649E-02      0.2143943270E-01
          0                28           2             4    7     1      -0.1417262247E-03       4    7    1        -0.7839093215E-02      0.1816215100E-01
          0                29           2             4    7     1      -0.1200761667E-03       4    7    1        -0.6641526453E-02      0.1538779475E-01
          0                30           1             4    7     1      -0.1017400419E-03       4    7    1        -0.5627280427E-02      0.1303804582E-01
          0                31           1             4    7     1      -0.8620695686E-04       4    7    1        -0.4768091201E-02      0.1104748454E-01

    ------------------------------------------------
       NWT REQUIRED           31 OUTER ITERATIONS 
       AND A TOTAL OF         60 INNER ITERATIONS.
    ------------------------------------------------

 NO OUTPUT CONTROL FOR STRESS PERIOD   44   TIME STEP    3
 
 SOLVING FOR HEAD 
                                                   Max.-Head-Change                         Max.-Flux-Residual
  Residual-Control   Outer-Iter.   Inner-Iter.     Column Row Layer    Maximum-Head-Change  Column Row Layer    Maximum-Flux-Residual          L2-NORM 
          0                 1           2             4    7     1      -0.1574417117E+00       4    7    1        -0.8246326623E+01      0.1844818703E+02
          0                 2           2             5    8     1      -0.2191739249E-02       5    8    1        -0.1226165455E+00      0.3402526762E+00
          0                 3           2             5    7     1      -0.1215224454E-01       4    7    1        -0.6467860491E+00      0.1565630575E+01
          0                 4           2             4    7     1      -0.9017731929E-02       4    7    1        -0.4991994854E+00      0.1142973536E+01
          0                 5           2             4    7     1      -0.7411619709E-02       4    7    1        -0.4100474027E+00      0.9494907355E+00
          0                 6           2             4    7     1      -0.6114005279E-02       4    7    1        -0.3382736957E+00      0.7824015521E+00
          0                 7           2             4    7     1      -0.5070019898E-02       4    7    1        -0.2805033219E+00      0.6490771546E+00
          0                 8           2             4    7     1      -0.4221023898E-02       4    7    1        -0.2335274717E+00      0.5404770980E+00
          0                 9           2             4    7     1      -0.3525317670E-02       4    7    1        -0.1950341038E+00      0.4514651026E+00
          0                10           2             4    7     1      -0.2951779633E-02       4    7    1        -0.1633010975E+00      0.3780613232E+00
                                                   Max.-Head-Change                         Max.-Flux-Residual
  Residual-Control   Outer-Iter.   Inner-Iter.     Column Row Layer    Maximum-Head-Change  Column Row Layer    Maximum-Flux-Residual          L2-NORM 
          0                11           2             4    7     1      -0.2476669116E-02       4    7    1        -0.1370145031E+00      0.3172407357E+00
          0                12           2             4    7     1      -0.2081527623E-02       4    7    1        -0.1151527811E+00      0.2666483042E+00
          0                13           2             4    7     1      -0.1751879299E-02       4    7    1        -0.9691492214E-01      0.2244338370E+00
          0                14           2             4    7     1      -0.1476130749E-02       4    7    1        -0.8165930231E-01      0.1891178952E+00
          0                15           2             4    7     1      -0.1244988851E-02       4    7    1        -0.6887171145E-01      0.1595118904E+00
          0                16           2             4    7     1      -0.1050864674E-02       4    7    1        -0.5813222992E-01      0.1346450293E+00
          0                17           2             4    7     1      -0.8875862303E-03       4    7    1        -0.4909934116E-01      0.1137279747E+00
          0                18           2             4    7     1      -0.7500990560E-03       4    7    1        -0.4149337287E-01      0.9611403927E-01
          0                19           2             4    7     1      -0.6342191576E-03       4    7    1        -0.3508282581E-01      0.8126761495E-01
          0                20           2             4    7     1      -0.5364529661E-03       4    7    1        -0.2967440773E-01      0.6874129401E-01
                                                   Max.-Head-Change                         Max.-Flux-Residual
  Residual-Control   Outer-Iter.   Inner-Iter.     Column Row Layer    Maximum-Head-Change  Column Row Layer    Maximum-Flux-Residual          L2-NORM 
          0                21           2             4    7     1      -0.4539009875E-03       4    7    1        -0.2510769358E-01      0.5816389132E-01
          0                22           2             4    7     1      -0.3841412406E-03       4    7    1        -0.2124865458E-01      0.4922669830E-01
          0                23           2             4    7     1      -0.3251969367E-03       4    7    1        -0.1798799997E-01      0.4167232767E-01
          0                24           2             4    7     1      -0.2753526619E-03       4    7    1        -0.1523074160E-01      0.3528548531E-01
          0                25           2             4    7     1      -0.2331914686E-03       4    7    1        -0.1289851926E-01      0.2988291492E-01
          0                26           2             4    7     1      -0.1975094197E-03       4    7    1        -0.1092472493E-01      0.2531047423E-01
          0                27           2             4    7     1      -0.1673013051E-03       4    7    1        -0.9253745678E-02      0.2143943269E-01
          0                28           2             4    7     1      -0.1417266483E-03       4    7    1        -0.7839083059E-02      0.1816215099E-01
          0                29           2             4    7     1      -0.1200765259E-03       4    7    1        -0.6641517869E-02      0.1538779479E-01
          0                30           1             4    7     1      -0.1017403460E-03       4    7    1        -0.5627273148E-02      0.1303804585E-01
          0                31           1             4    7     1      -0.8620721478E-04       4    7    1        -0.4768085044E-02      0.1104748452E-01

    ------------------------------------------------
       NWT REQUIRED           31 OUTER ITERATIONS 
       AND A TOTAL OF         60 INNER ITERATIONS.
    ------------------------------------------------

 NO OUTPUT CONTROL FOR STRESS PERIOD   44   TIME STEP    4
 
 SOLVING FOR HEAD 
                                                   Max.-Head-Change                         Max.-Flux-Residual
  Residual-Control   Outer-Iter.   Inner-Iter.     Column Row Layer    Maximum-Head-Change  Column Row Layer    Maximum-Flux-Residual          L2-NORM 
          0                 1           2             4    7     1      -0.1556914503E+00       4    7    1        -0.8158671822E+01      0.1803155572E+02
          0                 2           2             5    8     1      -0.2714252005E-02       5    8    1        -0.1513220419E+00      0.3979779720E+00
          0                 3           2             5    7     1      -0.1211925472E-01       4    7    1        -0.6461972343E+00      0.1560872597E+01
          0                 4           2             4    7     1      -0.9018234805E-02       4    7    1        -0.4992178904E+00      0.1143430388E+01
          0                 5           2             4    7     1      -0.7411623706E-02       4    7    1        -0.4100465825E+00      0.9494457163E+00
          0                 6           2             4    7     1      -0.6114025382E-02       4    7    1        -0.3382732160E+00      0.7824060208E+00
          0                 7           2             4    7     1      -0.5070035877E-02       4    7    1        -0.2805029640E+00      0.6490767082E+00
          0                 8           2             4    7     1      -0.4221037230E-02       4    7    1        -0.2335271687E+00      0.5404771420E+00
          0                 9           2             4    7     1      -0.3525328803E-02       4    7    1        -0.1950338521E+00      0.4514650977E+00
          0                10           2             4    7     1      -0.2951788955E-02       4    7    1        -0.1633008872E+00      0.3780613232E+00
                                                   Max.-Head-Change                         Max.-Flux-Residual
  Residual-Control   Outer-Iter.   Inner-Iter.     Column Row Layer    Maximum-Head-Change  Column Row Layer    Maximum-Flux-Residual          L2-NORM 
          0                11           2             4    7     1      -0.2476676938E-02       4    7    1        -0.1370143270E+00      0.3172407354E+00
          0                12           2             4    7     1      -0.2081534196E-02       4    7    1        -0.1151526333E+00      0.2666483040E+00
          0                13           2             4    7     1      -0.1751884832E-02       4    7    1        -0.9691479797E-01      0.2244338368E+00
          0                14           2             4    7     1      -0.1476135412E-02       4    7    1        -0.8165919781E-01      0.1891178950E+00
          0                15           2             4    7     1      -0.1244992783E-02       4    7    1        -0.6887162340E-01      0.1595118903E+00
          0                16           2             4    7     1      -0.1050867993E-02       4    7    1        -0.5813215566E-01      0.1346450292E+00
          0                17           2             4    7     1      -0.8875890332E-03       4    7    1        -0.4909927849E-01      0.1137279746E+00
          0                18           2             4    7     1      -0.7501014252E-03       4    7    1        -0.4149331996E-01      0.9611403919E-01
          0                19           2             4    7     1      -0.6342211608E-03       4    7    1        -0.3508278109E-01      0.8126761488E-01
          0                20           2             4    7     1      -0.5364546599E-03       4    7    1        -0.2967436991E-01      0.6874129395E-01
                                                   Max.-Head-Change                         Max.-Flux-Residual
  Residual-Control   Outer-Iter.   Inner-Iter.     Column Row Layer    Maximum-Head-Change  Column Row Layer    Maximum-Flux-Residual          L2-NORM 
          0                21           2             4    7     1      -0.4539024218E-03       4    7    1        -0.2510766163E-01      0.5816389127E-01
          0                22           2             4    7     1      -0.3841424535E-03       4    7    1        -0.2124862751E-01      0.4922669826E-01
          0                23           2             4    7     1      -0.3251979638E-03       4    7    1        -0.1798797706E-01      0.4167232760E-01
          0                24           2             4    7     1      -0.2753535312E-03       4    7    1        -0.1523072221E-01      0.3528548524E-01
          0                25           2             4    7     1      -0.2331922051E-03       4    7    1        -0.1289850286E-01      0.2988291487E-01
          0                26           2             4    7     1      -0.1975100435E-03       4    7    1        -0.1092471103E-01      0.2531047416E-01
          0                27           2             4    7     1      -0.1673018331E-03       4    7    1        -0.9253733909E-02      0.2143943262E-01
          0                28           2             4    7     1      -0.1417270961E-03       4    7    1        -0.7839073108E-02      0.1816215095E-01
          0                29           2             4    7     1      -0.1200769049E-03       4    7    1        -0.6641509425E-02      0.1538779470E-01
          0                30           1             4    7     1      -0.1017406676E-03       4    7    1        -0.5627266013E-02      0.1303804578E-01
          0                31           1             4    7     1      -0.8620748703E-04       4    7    1        -0.4768078982E-02      0.1104748450E-01

    ------------------------------------------------
       NWT REQUIRED           31 OUTER ITERATIONS 
       AND A TOTAL OF         60 INNER ITERATIONS.
    ------------------------------------------------

 NO OUTPUT CONTROL FOR STRESS PERIOD   44   TIME STEP    5
 
 SOLVING FOR HEAD 
                                                   Max.-Head-Change                         Max.-Flux-Residual
  Residual-Control   Outer-Iter.   Inner-Iter.     Column Row Layer    Maximum-Head-Change  Column Row Layer    Maximum-Flux-Residual          L2-NORM 
          0                 1           2             4    7     1      -0.1538846828E+00       4    7    1        -0.8067733971E+01      0.1763837527E+02
          0                 2           2             5    8     1      -0.3208959042E-02       5    8    1        -0.1784751603E+00      0.4542355713E+00
          0                 3           2             4    7     1      -0.1235847317E-01       4    7    1        -0.6455353712E+00      0.1556263582E+01
          0                 4           2             4    7     1      -0.8800379868E-02       5    8    1        -0.4611545026E+00      0.1127758108E+01
          0                 5           2             4    7     1      -0.7342157474E-02       4    7    1        -0.3833048982E+00      0.9386383832E+00
          0                 6           2             4    7     1      -0.6047283944E-02       5    6    1        -0.3157107087E+00      0.7733207092E+00
          0                 7           2             4    7     1      -0.5017433532E-02       4    7    1        -0.2619376904E+00      0.6416018278E+00
          0                 8           2             4    7     1      -0.4178100320E-02       4    7    1        -0.2181198221E+00      0.5342747787E+00
          0                 9           2             4    7     1      -0.3490134183E-02       4    7    1        -0.1822042004E+00      0.4463008481E+00
          0                10           2             4    7     1      -0.2922759907E-02       4    7    1        -0.1525841366E+00      0.3737478948E+00
                                                   Max.-Head-Change                         Max.-Flux-Residual
  Residual-Control   Outer-Iter.   Inner-Iter.     Column Row Layer    Maximum-Head-Change  Column Row Layer    Maximum-Flux-Residual          L2-NORM 
          0                11           2             4    7     1      -0.2452621756E-02       4    7    1        -0.1280403363E+00      0.3136289804E+00
          0                12           2             4    7     1      -0.2061522996E-02       4    7    1        -0.1076228016E+00      0.2636179431E+00
          0                13           2             4    7     1      -0.1735187966E-02       4    7    1        -0.9058634744E-01      0.2218870704E+00
          0                14           2             4    7     1      -0.1462167092E-02       4    7    1        -0.7633315350E-01      0.1869746075E+00
          0                15           2             4    7     1      -0.1233283599E-02       4    7    1        -0.6438417722E-01      0.1577061255E+00
          0                16           2             4    7     1      -0.1041033781E-02       4    7    1        -0.5434768010E-01      0.1331221828E+00
          0                17           2             4    7     1      -0.8793176394E-03       4    7    1        -0.4590520895E-01      0.1124427330E+00
          0                18           2             4    7     1      -0.7431370067E-03       4    7    1        -0.3879583183E-01      0.9502863629E-01
          0                19           2             4    7     1      -0.6283517178E-03       4    7    1        -0.3280340928E-01      0.8035046882E-01
          0                20           2             4    7     1      -0.5315030463E-03       4    7    1        -0.2774737675E-01      0.6796594610E-01
                                                   Max.-Head-Change                         Max.-Flux-Residual
  Residual-Control   Outer-Iter.   Inner-Iter.     Column Row Layer    Maximum-Head-Change  Column Row Layer    Maximum-Flux-Residual          L2-NORM 
          0                21           2             4    7     1      -0.4497217578E-03       4    7    1        -0.2347794443E-01      0.5750816487E-01
          0                22           2             4    7     1      -0.3806099635E-03       5    7    1        -0.1987062643E-01      0.4867198434E-01
          0                23           2             4    7     1      -0.3222137392E-03       4    7    1        -0.1682132855E-01      0.4120292951E-01
          0                24           2             4    7     1      -0.2728302350E-03       4    7    1        -0.1424323547E-01      0.3488817837E-01
          0                25           2             4    7     1      -0.2310581861E-03       4    7    1        -0.1206250553E-01      0.2954656179E-01
          0                26           2             4    7     1      -0.1957041816E-03       4    7    1        -0.1021683240E-01      0.2502567044E-01
          0                27           2             4    7     1      -0.1657732342E-03       4    7    1        -0.8654272644E-02      0.2119825072E-01
          0                28           2             4    7     1      -0.1404331921E-03       4    7    1        -0.7331383368E-02      0.1795789318E-01
          0                29           2             4    7     1      -0.1189817627E-03       4    7    1        -0.6211501011E-02      0.1521479184E-01
          0                30           1             4    7     1      -0.1008132716E-03       4    7    1        -0.5263005998E-02      0.1289149610E-01
          0                31           1             4    7     1      -0.8542198620E-04       4    7    1        -0.4459496505E-02      0.1092333588E-01

    ------------------------------------------------
       NWT REQUIRED           31 OUTER ITERATIONS 
       AND A TOTAL OF         60 INNER ITERATIONS.
    ------------------------------------------------

 NO OUTPUT CONTROL FOR STRESS PERIOD   44   TIME STEP    6
 
 SOLVING FOR HEAD 
                                                   Max.-Head-Change                         Max.-Flux-Residual
  Residual-Control   Outer-Iter.   Inner-Iter.     Column Row Layer    Maximum-Head-Change  Column Row Layer    Maximum-Flux-Residual          L2-NORM 
          0                 1           2             4    7     1      -0.1520274609E+00       4    7    1        -0.7973846906E+01      0.1726704967E+02
          0                 2           2             5    8     1      -0.3677737550E-02       5    8    1        -0.2041818122E+00      0.5086939315E+00
          0                 3           2             4    7     1      -0.1233993694E-01       4    7    1        -0.6445976172E+00      0.1551713323E+01
          0                 4           2             4    7     1      -0.8802268166E-02       5    8    1        -0.4614091708E+00      0.1128216292E+01
          0                 5           2             4    7     1      -0.7341997038E-02       4    7    1        -0.3832955436E+00      0.9385926669E+00
          0                 6           2             4    7     1      -0.6047323407E-02       5    6    1        -0.3157131666E+00      0.7733252736E+00
          0                 7           2             4    7     1      -0.5017449001E-02       4    7    1        -0.2619375966E+00      0.6416013680E+00
          0                 8           2             4    7     1      -0.4178114934E-02       4    7    1        -0.2181198312E+00      0.5342748218E+00
          0                 9           2             4    7     1      -0.3490146216E-02       4    7    1        -0.1822041993E+00      0.4463008414E+00
          0                10           2             4    7     1      -0.2922770003E-02       4    7    1        -0.1525841366E+00      0.3737478935E+00
                                                   Max.-Head-Change                         Max.-Flux-Residual
  Residual-Control   Outer-Iter.   Inner-Iter.     Column Row Layer    Maximum-Head-Change  Column Row Layer    Maximum-Flux-Residual          L2-NORM 
          0                11           2             4    7     1      -0.2452630225E-02       4    7    1        -0.1280403361E+00      0.3136289788E+00
          0                12           2             4    7     1      -0.2061530115E-02       4    7    1        -0.1076228015E+00      0.2636179419E+00
          0                13           2             4    7     1      -0.1735193958E-02       4    7    1        -0.9058634733E-01      0.2218870694E+00
          0                14           2             4    7     1      -0.1462172142E-02       4    7    1        -0.7633315342E-01      0.1869746066E+00
          0                15           2             4    7     1      -0.1233287859E-02       4    7    1        -0.6438417717E-01      0.1577061248E+00
          0                16           2             4    7     1      -0.1041037376E-02       4    7    1        -0.5434768002E-01      0.1331221822E+00
          0                17           2             4    7     1      -0.8793206760E-03       4    7    1        -0.4590520891E-01      0.1124427325E+00
          0                18           2             4    7     1      -0.7431395732E-03       4    7    1        -0.3879583180E-01      0.9502863584E-01
          0                19           2             4    7     1      -0.6283538879E-03       4    7    1        -0.3280340925E-01      0.8035046845E-01
          0                20           2             4    7     1      -0.5315048816E-03       4    7    1        -0.2774737671E-01      0.6796594578E-01
                                                   Max.-Head-Change                         Max.-Flux-Residual
  Residual-Control   Outer-Iter.   Inner-Iter.     Column Row Layer    Maximum-Head-Change  Column Row Layer    Maximum-Flux-Residual          L2-NORM 
          0                21           2             4    7     1      -0.4497233112E-03       4    7    1        -0.2347794441E-01      0.5750816463E-01
          0                22           2             4    7     1      -0.3806112777E-03       5    7    1        -0.1987062636E-01      0.4867198413E-01
          0                23           2             4    7     1      -0.3222148518E-03       4    7    1        -0.1682132853E-01      0.4120292933E-01
          0                24           2             4    7     1      -0.2728311770E-03       4    7    1        -0.1424323545E-01      0.3488817821E-01
          0                25           2             4    7     1      -0.2310589844E-03       4    7    1        -0.1206250553E-01      0.2954656165E-01
          0                26           2             4    7     1      -0.1957048570E-03       4    7    1        -0.1021683237E-01      0.2502567033E-01
          0                27           2             4    7     1      -0.1657738067E-03       4    7    1        -0.8654272641E-02      0.2119825061E-01
          0                28           2             4    7     1      -0.1404336772E-03       4    7    1        -0.7331383368E-02      0.1795789309E-01
          0                29           2             4    7     1      -0.1189821735E-03       4    7    1        -0.6211501002E-02      0.1521479176E-01
          0                30           1             4    7     1      -0.1008136198E-03       4    7    1        -0.5263005999E-02      0.1289149605E-01
          0                31           1             4    7     1      -0.8542228120E-04       4    7    1        -0.4459496503E-02      0.1092333584E-01

    ------------------------------------------------
       NWT REQUIRED           31 OUTER ITERATIONS 
       AND A TOTAL OF         60 INNER ITERATIONS.
    ------------------------------------------------

 NO OUTPUT CONTROL FOR STRESS PERIOD   44   TIME STEP    7
 
 SOLVING FOR HEAD 
                                                   Max.-Head-Change                         Max.-Flux-Residual
  Residual-Control   Outer-Iter.   Inner-Iter.     Column Row Layer    Maximum-Head-Change  Column Row Layer    Maximum-Flux-Residual          L2-NORM 
          0                 1           2             4    7     1      -0.1501260469E+00       4    7    1        -0.7877357611E+01      0.1691603142E+02
          0                 2           2             5    8     1      -0.4122358853E-02       5    8    1        -0.2285416728E+00      0.5612344338E+00
          0                 3           2             4    7     1      -0.1232096042E-01       4    7    1        -0.6436338308E+00      0.1547311490E+01
          0                 4           2             4    7     1      -0.8804201779E-02       5    8    1        -0.4616505358E+00      0.1128659854E+01
          0                 5           2             4    7     1      -0.7341833125E-02       4    7    1        -0.3832859281E+00      0.9385484087E+00
          0                 6           2             4    7     1      -0.6047364089E-02       5    6    1        -0.3157155050E+00      0.7733296927E+00
          0                 7           2             4    7     1      -0.5017465071E-02       4    7    1        -0.2619375002E+00      0.6416009231E+00
          0                 8           2             4    7     1      -0.4178130090E-02       4    7    1        -0.2181198406E+00      0.5342748637E+00
          0                 9           2             4    7     1      -0.3490158698E-02       4    7    1        -0.1822041982E+00      0.4463008350E+00
          0                10           2             4    7     1      -0.2922780474E-02       4    7    1        -0.1525841365E+00      0.3737478923E+00
                                                   Max.-Head-Change                         Max.-Flux-Residual
  Residual-Control   Outer-Iter.   Inner-Iter.     Column Row Layer    Maximum-Head-Change  Column Row Layer    Maximum-Flux-Residual          L2-NORM 
          0                11           2             4    7     1      -0.2452639010E-02       4    7    1        -0.1280403360E+00      0.3136289774E+00
          0                12           2             4    7     1      -0.2061537499E-02       4    7    1        -0.1076228014E+00      0.2636179407E+00
          0                13           2             4    7     1      -0.1735200173E-02       4    7    1        -0.9058634725E-01      0.2218870684E+00
          0                14           2             4    7     1      -0.1462177379E-02       4    7    1        -0.7633315336E-01      0.1869746058E+00
          0                15           2             4    7     1      -0.1233292276E-02       4    7    1        -0.6438417711E-01      0.1577061241E+00
          0                16           2             4    7     1      -0.1041041105E-02       4    7    1        -0.5434767999E-01      0.1331221816E+00
          0                17           2             4    7     1      -0.8793238256E-03       4    7    1        -0.4590520886E-01      0.1124427320E+00
          0                18           2             4    7     1      -0.7431422349E-03       4    7    1        -0.3879583175E-01      0.9502863541E-01
          0                19           2             4    7     1      -0.6283561381E-03       4    7    1        -0.3280340921E-01      0.8035046808E-01
          0                20           2             4    7     1      -0.5315067853E-03       4    7    1        -0.2774737670E-01      0.6796594550E-01
                                                   Max.-Head-Change                         Max.-Flux-Residual
  Residual-Control   Outer-Iter.   Inner-Iter.     Column Row Layer    Maximum-Head-Change  Column Row Layer    Maximum-Flux-Residual          L2-NORM 
          0                21           2             4    7     1      -0.4497249220E-03       4    7    1        -0.2347794440E-01      0.5750816437E-01
          0                22           2             4    7     1      -0.3806126409E-03       5    7    1        -0.1987062629E-01      0.4867198392E-01
          0                23           2             4    7     1      -0.3222160058E-03       4    7    1        -0.1682132851E-01      0.4120292915E-01
          0                24           2             4    7     1      -0.2728321542E-03       4    7    1        -0.1424323544E-01      0.3488817806E-01
          0                25           2             4    7     1      -0.2310598119E-03       4    7    1        -0.1206250552E-01      0.2954656153E-01
          0                26           2             4    7     1      -0.1957055582E-03       4    7    1        -0.1021683237E-01      0.2502567022E-01
          0                27           2             4    7     1      -0.1657744005E-03       4    7    1        -0.8654272633E-02      0.2119825052E-01
          0                28           2             4    7     1      -0.1404341805E-03       4    7    1        -0.7331383368E-02      0.1795789305E-01
          0                29           2             4    7     1      -0.1189825992E-03       4    7    1        -0.6211500980E-02      0.1521479171E-01
          0                30           1             4    7     1      -0.1008139811E-03       4    7    1        -0.5263006013E-02      0.1289149601E-01
          0                31           1             4    7     1      -0.8542258721E-04       4    7    1        -0.4459496503E-02      0.1092333577E-01

    ------------------------------------------------
       NWT REQUIRED           31 OUTER ITERATIONS 
       AND A TOTAL OF         60 INNER ITERATIONS.
    ------------------------------------------------

 NO OUTPUT CONTROL FOR STRESS PERIOD   44   TIME STEP    8
 
 SOLVING FOR HEAD 
                                                   Max.-Head-Change                         Max.-Flux-Residual
  Residual-Control   Outer-Iter.   Inner-Iter.     Column Row Layer    Maximum-Head-Change  Column Row Layer    Maximum-Flux-Residual          L2-NORM 
          0                 1           2             4    7     1      -0.1481858058E+00       4    7    1        -0.7778563208E+01      0.1658394314E+02
          0                 2           2             5    8     1      -0.4544439735E-02       5    8    1        -0.2516458051E+00      0.6118391463E+00
          0                 3           2             4    7     1      -0.1230159713E-01       4    7    1        -0.6426469816E+00      0.1543051039E+01
          0                 4           2             4    7     1      -0.8806175245E-02       5    8    1        -0.4618794960E+00      0.1129089431E+01
          0                 5           2             4    7     1      -0.7341666192E-02       4    7    1        -0.3832760815E+00      0.9385055446E+00
          0                 6           2             4    7     1      -0.6047405866E-02       5    6    1        -0.3157177314E+00      0.7733339729E+00
          0                 7           2             4    7     1      -0.5017481689E-02       4    7    1        -0.2619374015E+00      0.6416004922E+00
          0                 8           2             4    7     1      -0.4178145739E-02       4    7    1        -0.2181198503E+00      0.5342749060E+00
          0                 9           2             4    7     1      -0.3490171589E-02       4    7    1        -0.1822041970E+00      0.4463008306E+00
          0                10           2             4    7     1      -0.2922791287E-02       4    7    1        -0.1525841364E+00      0.3737478912E+00
                                                   Max.-Head-Change                         Max.-Flux-Residual
  Residual-Control   Outer-Iter.   Inner-Iter.     Column Row Layer    Maximum-Head-Change  Column Row Layer    Maximum-Flux-Residual          L2-NORM 
          0                11           2             4    7     1      -0.2452648082E-02       4    7    1        -0.1280403359E+00      0.3136289761E+00
          0                12           2             4    7     1      -0.2061545124E-02       4    7    1        -0.1076228013E+00      0.2636179431E+00
          0                13           2             4    7     1      -0.1735206592E-02       4    7    1        -0.9058634716E-01      0.2218870705E+00
          0                14           2             4    7     1      -0.1462182787E-02       4    7    1        -0.7633315328E-01      0.1869746051E+00
          0                15           2             4    7     1      -0.1233296838E-02       4    7    1        -0.6438417705E-01      0.1577061235E+00
          0                16           2             4    7     1      -0.1041044955E-02       4    7    1        -0.5434767992E-01      0.1331221811E+00
          0                17           2             4    7     1      -0.8793270783E-03       4    7    1        -0.4590520882E-01      0.1124427395E+00
          0                18           2             4    7     1      -0.7431449837E-03       4    7    1        -0.3879583171E-01      0.9502864148E-01
          0                19           2             4    7     1      -0.6283584623E-03       4    7    1        -0.3280340918E-01      0.8035046806E-01
          0                20           2             4    7     1      -0.5315087518E-03       4    7    1        -0.2774737668E-01      0.6796594524E-01
                                                   Max.-Head-Change                         Max.-Flux-Residual
  Residual-Control   Outer-Iter.   Inner-Iter.     Column Row Layer    Maximum-Head-Change  Column Row Layer    Maximum-Flux-Residual          L2-NORM 
          0                21           2             4    7     1      -0.4497265852E-03       4    7    1        -0.2347794436E-01      0.5750816414E-01
          0                22           2             4    7     1      -0.3806140487E-03       5    7    1        -0.1987062622E-01      0.4867198372E-01
          0                23           2             4    7     1      -0.3222171976E-03       4    7    1        -0.1682132849E-01      0.4120295071E-01
          0                24           2             4    7     1      -0.2728331637E-03       4    7    1        -0.1424323543E-01      0.3488819331E-01
          0                25           2             4    7     1      -0.2310606667E-03       4    7    1        -0.1206250550E-01      0.2954656264E-01
          0                26           2             4    7     1      -0.1957062819E-03       4    7    1        -0.1021683234E-01      0.2502567015E-01
          0                27           2             4    7     1      -0.1657750135E-03       4    7    1        -0.8654272618E-02      0.2119825042E-01
          0                28           2             4    7     1      -0.1404346998E-03       4    7    1        -0.7331383355E-02      0.1795789296E-01
          0                29           2             4    7     1      -0.1189830398E-03       4    7    1        -0.6211500985E-02      0.1521485043E-01
          0                30           1             4    7     1      -0.1008143535E-03       4    7    1        -0.5263005981E-02      0.1289153318E-01
          0                31           1             4    7     1      -0.8542290335E-04       4    7    1        -0.4459496503E-02      0.1092333951E-01

    ------------------------------------------------
       NWT REQUIRED           31 OUTER ITERATIONS 
       AND A TOTAL OF         60 INNER ITERATIONS.
    ------------------------------------------------

 NO OUTPUT CONTROL FOR STRESS PERIOD   44   TIME STEP    9
 
 SOLVING FOR HEAD 
                                                   Max.-Head-Change                         Max.-Flux-Residual
  Residual-Control   Outer-Iter.   Inner-Iter.     Column Row Layer    Maximum-Head-Change  Column Row Layer    Maximum-Flux-Residual          L2-NORM 
          0                 1           2             4    7     1      -0.1462120173E+00       4    7    1        -0.7677756388E+01      0.1626949793E+02
          0                 2           2             5    8     1      -0.4945484081E-02       5    8    1        -0.2735788199E+00      0.6605413320E+00
          0                 3           2             4    7     1      -0.1228189972E-01       4    7    1        -0.6416399957E+00      0.1538925170E+01
          0                 4           2             4    7     1      -0.8808183187E-02       5    8    1        -0.4620968864E+00      0.1129505649E+01
          0                 5           2             4    7     1      -0.7341496683E-02       4    7    1        -0.3832660331E+00      0.9384640120E+00
          0                 6           2             4    7     1      -0.6047448622E-02       5    6    1        -0.3157198528E+00      0.7733381203E+00
          0                 7           2             4    7     1      -0.5017498807E-02       4    7    1        -0.2619373009E+00      0.6416000749E+00
          0                 8           2             4    7     1      -0.4178161834E-02       4    7    1        -0.2181198601E+00      0.5342749438E+00
          0                 9           2             4    7     1      -0.3490184850E-02       4    7    1        -0.1822041958E+00      0.4463008231E+00
          0                10           2             4    7     1      -0.2922802410E-02       4    7    1        -0.1525841364E+00      0.3737478902E+00
                                                   Max.-Head-Change                         Max.-Flux-Residual
  Residual-Control   Outer-Iter.   Inner-Iter.     Column Row Layer    Maximum-Head-Change  Column Row Layer    Maximum-Flux-Residual          L2-NORM 
          0                11           2             4    7     1      -0.2452657415E-02       4    7    1        -0.1280403358E+00      0.3136289749E+00
          0                12           2             4    7     1      -0.2061552968E-02       4    7    1        -0.1076228012E+00      0.2636179387E+00
          0                13           2             4    7     1      -0.1735213194E-02       4    7    1        -0.9058634707E-01      0.2218870667E+00
          0                14           2             4    7     1      -0.1462188351E-02       4    7    1        -0.7633315320E-01      0.1869746043E+00
          0                15           2             4    7     1      -0.1233301531E-02       4    7    1        -0.6438417699E-01      0.1577061229E+00
          0                16           2             4    7     1      -0.1041048917E-02       4    7    1        -0.5434767989E-01      0.1331221806E+00
          0                17           2             4    7     1      -0.8793304238E-03       4    7    1        -0.4590520878E-01      0.1124427311E+00
          0                18           2             4    7     1      -0.7431478120E-03       4    7    1        -0.3879583170E-01      0.9502863471E-01
          0                19           2             4    7     1      -0.6283608532E-03       4    7    1        -0.3280340914E-01      0.8035046748E-01
          0                20           2             4    7     1      -0.5315107741E-03       4    7    1        -0.2774737665E-01      0.6796594499E-01
                                                   Max.-Head-Change                         Max.-Flux-Residual
  Residual-Control   Outer-Iter.   Inner-Iter.     Column Row Layer    Maximum-Head-Change  Column Row Layer    Maximum-Flux-Residual          L2-NORM 
          0                21           2             4    7     1      -0.4497282966E-03       4    7    1        -0.2347794434E-01      0.5750816392E-01
          0                22           2             4    7     1      -0.3806154964E-03       5    7    1        -0.1987062615E-01      0.4867198354E-01
          0                23           2             4    7     1      -0.3222184240E-03       4    7    1        -0.1682132848E-01      0.4120292882E-01
          0                24           2             4    7     1      -0.2728342016E-03       4    7    1        -0.1424323541E-01      0.3488817781E-01
          0                25           2             4    7     1      -0.2310615459E-03       4    7    1        -0.1206250550E-01      0.2954656133E-01
          0                26           2             4    7     1      -0.1957070267E-03       4    7    1        -0.1021683234E-01      0.2502567000E-01
          0                27           2             4    7     1      -0.1657756442E-03       4    7    1        -0.8654272608E-02      0.2119825035E-01
          0                28           2             4    7     1      -0.1404352344E-03       4    7    1        -0.7331383358E-02      0.1795789288E-01
          0                29           2             4    7     1      -0.1189834922E-03       4    7    1        -0.6211500977E-02      0.1521479158E-01
          0                30           1             4    7     1      -0.1008147375E-03       4    7    1        -0.5263005992E-02      0.1289149592E-01
          0                31           1             4    7     1      -0.8542322825E-04       4    7    1        -0.4459496496E-02      0.1092333570E-01

    ------------------------------------------------
       NWT REQUIRED           31 OUTER ITERATIONS 
       AND A TOTAL OF         60 INNER ITERATIONS.
    ------------------------------------------------

 NO OUTPUT CONTROL FOR STRESS PERIOD   44   TIME STEP   10
 
 SOLVING FOR HEAD 
                                                   Max.-Head-Change                         Max.-Flux-Residual
  Residual-Control   Outer-Iter.   Inner-Iter.     Column Row Layer    Maximum-Head-Change  Column Row Layer    Maximum-Flux-Residual          L2-NORM 
          0                 1           2             4    7     1      -0.1442095968E+00       4    7    1        -0.7575210857E+01      0.1597151471E+02
          0                 2           2             5    8     1      -0.5326879622E-02       5    8    1        -0.2944186941E+00      0.7074005040E+00
          0                 3           2             4    7     1      -0.1226191720E-01       4    7    1        -0.6406156085E+00      0.1534927510E+01
          0                 4           2             4    7     1      -0.8810220598E-02       5    8    1        -0.4623034765E+00      0.1129909101E+01
          0                 5           2             4    7     1      -0.7341325014E-02       4    7    1        -0.3832558102E+00      0.9384237515E+00
          0                 6           2             4    7     1      -0.6047492242E-02       5    6    1        -0.3157218757E+00      0.7733421410E+00
          0                 7           2             4    7     1      -0.5017516376E-02       4    7    1        -0.2619371984E+00      0.6415996705E+00
          0                 8           2             4    7     1      -0.4178178333E-02       4    7    1        -0.2181198701E+00      0.5342749822E+00
          0                 9           2             4    7     1      -0.3490198444E-02       4    7    1        -0.1822041947E+00      0.4463008176E+00
          0                10           2             4    7     1      -0.2922813814E-02       4    7    1        -0.1525841364E+00      0.3737478893E+00
                                                   Max.-Head-Change                         Max.-Flux-Residual
  Residual-Control   Outer-Iter.   Inner-Iter.     Column Row Layer    Maximum-Head-Change  Column Row Layer    Maximum-Flux-Residual          L2-NORM 
          0                11           2             4    7     1      -0.2452666981E-02       4    7    1        -0.1280403356E+00      0.3136289738E+00
          0                12           2             4    7     1      -0.2061561010E-02       4    7    1        -0.1076228011E+00      0.2636179378E+00
          0                13           2             4    7     1      -0.1735219963E-02       4    7    1        -0.9058634698E-01      0.2218870659E+00
          0                14           2             4    7     1      -0.1462194055E-02       4    7    1        -0.7633315314E-01      0.1869746037E+00
          0                15           2             4    7     1      -0.1233306341E-02       4    7    1        -0.6438417692E-01      0.1577061223E+00
          0                16           2             4    7     1      -0.1041052978E-02       4    7    1        -0.5434767984E-01      0.1331221802E+00
          0                17           2             4    7     1      -0.8793338540E-03       4    7    1        -0.4590520874E-01      0.1124427307E+00
          0                18           2             4    7     1      -0.7431507107E-03       4    7    1        -0.3879583167E-01      0.9502863438E-01
          0                19           2             4    7     1      -0.6283633047E-03       4    7    1        -0.3280340912E-01      0.8035046726E-01
          0                20           2             4    7     1      -0.5315128473E-03       4    7    1        -0.2774737661E-01      0.6796594479E-01
                                                   Max.-Head-Change                         Max.-Flux-Residual
  Residual-Control   Outer-Iter.   Inner-Iter.     Column Row Layer    Maximum-Head-Change  Column Row Layer    Maximum-Flux-Residual          L2-NORM 
          0                21           2             4    7     1      -0.4497300510E-03       4    7    1        -0.2347794432E-01      0.5750816377E-01
          0                22           2             4    7     1      -0.3806169810E-03       5    7    1        -0.1987062611E-01      0.4867198341E-01
          0                23           2             4    7     1      -0.3222196806E-03       4    7    1        -0.1682132846E-01      0.4120292869E-01
          0                24           2             4    7     1      -0.2728352662E-03       4    7    1        -0.1424323542E-01      0.3488817768E-01
          0                25           2             4    7     1      -0.2310624470E-03       4    7    1        -0.1206250548E-01      0.2954656121E-01
          0                26           2             4    7     1      -0.1957077907E-03       4    7    1        -0.1021683235E-01      0.2502567012E-01
          0                27           2             4    7     1      -0.1657762906E-03       4    7    1        -0.8654272585E-02      0.2119825034E-01
          0                28           2             4    7     1      -0.1404357821E-03       4    7    1        -0.7331383350E-02      0.1795789284E-01
          0                29           2             4    7     1      -0.1189839565E-03       4    7    1        -0.6211500973E-02      0.1521479153E-01
          0                30           1             4    7     1      -0.1008151308E-03       4    7    1        -0.5263005980E-02      0.1289149619E-01
          0                31           1             4    7     1      -0.8542356114E-04       4    7    1        -0.4459496484E-02      0.1092333587E-01

    ------------------------------------------------
       NWT REQUIRED           31 OUTER ITERATIONS 
       AND A TOTAL OF         60 INNER ITERATIONS.
    ------------------------------------------------

 NO OUTPUT CONTROL FOR STRESS PERIOD   44   TIME STEP   11
 
 SOLVING FOR HEAD 
                                                   Max.-Head-Change                         Max.-Flux-Residual
  Residual-Control   Outer-Iter.   Inner-Iter.     Column Row Layer    Maximum-Head-Change  Column Row Layer    Maximum-Flux-Residual          L2-NORM 
          0                 1           2             4    7     1      -0.1421829996E+00       4    7    1        -0.7471174183E+01      0.1568892360E+02
          0                 2           2             5    8     1      -0.5689899015E-02       5    8    1        -0.3142366034E+00      0.7522665237E+00
          0                 3           2             4    7     1      -0.1224169376E-01       4    7    1        -0.6395762950E+00      0.1531051583E+01
          0                 4           2             4    7     1      -0.8812282978E-02       5    8    1        -0.4624999700E+00      0.1130300361E+01
          0                 5           2             4    7     1      -0.7341151568E-02       4    7    1        -0.3832454376E+00      0.9383847040E+00
          0                 6           2             4    7     1      -0.6047536633E-02       5    6    1        -0.3157238060E+00      0.7733460399E+00
          0                 7           2             4    7     1      -0.5017534360E-02       4    7    1        -0.2619370945E+00      0.6415992777E+00
          0                 8           2             4    7     1      -0.4178195199E-02       4    7    1        -0.2181198803E+00      0.5342750190E+00
          0                 9           2             4    7     1      -0.3490212344E-02       4    7    1        -0.1822041935E+00      0.4463008118E+00
          0                10           2             4    7     1      -0.2922825472E-02       4    7    1        -0.1525841364E+00      0.3737478882E+00
                                                   Max.-Head-Change                         Max.-Flux-Residual
  Residual-Control   Outer-Iter.   Inner-Iter.     Column Row Layer    Maximum-Head-Change  Column Row Layer    Maximum-Flux-Residual          L2-NORM 
          0                11           2             4    7     1      -0.2452676763E-02       4    7    1        -0.1280403355E+00      0.3136289724E+00
          0                12           2             4    7     1      -0.2061569232E-02       4    7    1        -0.1076228010E+00      0.2636179367E+00
          0                13           2             4    7     1      -0.1735226884E-02       4    7    1        -0.9058634692E-01      0.2218870650E+00
          0                14           2             4    7     1      -0.1462199886E-02       4    7    1        -0.7633315307E-01      0.1869746029E+00
          0                15           2             4    7     1      -0.1233311260E-02       4    7    1        -0.6438417687E-01      0.1577061217E+00
          0                16           2             4    7     1      -0.1041057130E-02       4    7    1        -0.5434767979E-01      0.1331221796E+00
          0                17           2             4    7     1      -0.8793373610E-03       4    7    1        -0.4590520869E-01      0.1124427303E+00
          0                18           2             4    7     1      -0.7431536743E-03       4    7    1        -0.3879583163E-01      0.9502863399E-01
          0                19           2             4    7     1      -0.6283658107E-03       4    7    1        -0.3280340910E-01      0.8035046688E-01
          0                20           2             4    7     1      -0.5315149672E-03       4    7    1        -0.2774737660E-01      0.6796594448E-01
                                                   Max.-Head-Change                         Max.-Flux-Residual
  Residual-Control   Outer-Iter.   Inner-Iter.     Column Row Layer    Maximum-Head-Change  Column Row Layer    Maximum-Flux-Residual          L2-NORM 
          0                21           2             4    7     1      -0.4497318447E-03       4    7    1        -0.2347794430E-01      0.5750816350E-01
          0                22           2             4    7     1      -0.3806184988E-03       5    7    1        -0.1987062608E-01      0.4867198318E-01
          0                23           2             4    7     1      -0.3222209660E-03       4    7    1        -0.1682132845E-01      0.4120292854E-01
          0                24           2             4    7     1      -0.2728363538E-03       4    7    1        -0.1424323539E-01      0.3488817752E-01
          0                25           2             4    7     1      -0.2310633689E-03       4    7    1        -0.1206250548E-01      0.2954656117E-01
          0                26           2             4    7     1      -0.1957085707E-03       4    7    1        -0.1021683232E-01      0.2502566987E-01
          0                27           2             4    7     1      -0.1657769523E-03       4    7    1        -0.8654272594E-02      0.2119825020E-01
          0                28           2             4    7     1      -0.1404363418E-03       4    7    1        -0.7331383327E-02      0.1795789287E-01
          0                29           2             4    7     1      -0.1189844314E-03       4    7    1        -0.6211500977E-02      0.1521479155E-01
          0                30           1             4    7     1      -0.1008155326E-03       4    7    1        -0.5263005964E-02      0.1289149580E-01
          0                31           1             4    7     1      -0.8542390217E-04       4    7    1        -0.4459496480E-02      0.1092333581E-01

    ------------------------------------------------
       NWT REQUIRED           31 OUTER ITERATIONS 
       AND A TOTAL OF         60 INNER ITERATIONS.
    ------------------------------------------------

 NO OUTPUT CONTROL FOR STRESS PERIOD   44   TIME STEP   12
 
 SOLVING FOR HEAD 
                                                   Max.-Head-Change                         Max.-Flux-Residual
  Residual-Control   Outer-Iter.   Inner-Iter.     Column Row Layer    Maximum-Head-Change  Column Row Layer    Maximum-Flux-Residual          L2-NORM 
          0                 1           2             4    7     1      -0.1401365103E+00       4    7    1        -0.7365884739E+01      0.1542083495E+02
          0                 2           2             5    8     1      -0.6035729443E-02       5    8    1        -0.3331004740E+00      0.7959014158E+00
          0                 3           2             4    7     1      -0.1222127293E-01       4    7    1        -0.6385244379E+00      0.1527293923E+01
          0                 4           2             4    7     1      -0.8814365859E-02       5    8    1        -0.4626870325E+00      0.1130679854E+01
          0                 5           2             4    7     1      -0.7340976697E-02       4    7    1        -0.3832349391E+00      0.9383468316E+00
          0                 6           2             4    7     1      -0.6047581682E-02       5    6    1        -0.3157256494E+00      0.7733498224E+00
          0                 7           2             4    7     1      -0.5017552705E-02       4    7    1        -0.2619369894E+00      0.6415988974E+00
          0                 8           2             4    7     1      -0.4178212385E-02       4    7    1        -0.2181198907E+00      0.5342750553E+00
          0                 9           2             4    7     1      -0.3490226508E-02       4    7    1        -0.1822041923E+00      0.4463008068E+00
          0                10           2             4    7     1      -0.2922837353E-02       4    7    1        -0.1525841363E+00      0.3737478875E+00
                                                   Max.-Head-Change                         Max.-Flux-Residual
  Residual-Control   Outer-Iter.   Inner-Iter.     Column Row Layer    Maximum-Head-Change  Column Row Layer    Maximum-Flux-Residual          L2-NORM 
          0                11           2             4    7     1      -0.2452686731E-02       4    7    1        -0.1280403354E+00      0.3136289715E+00
          0                12           2             4    7     1      -0.2061577610E-02       4    7    1        -0.1076228009E+00      0.2636179360E+00
          0                13           2             4    7     1      -0.1735233936E-02       4    7    1        -0.9058634684E-01      0.2218870644E+00
          0                14           2             4    7     1      -0.1462205829E-02       4    7    1        -0.7633315303E-01      0.1869746024E+00
          0                15           2             4    7     1      -0.1233316273E-02       4    7    1        -0.6438417684E-01      0.1577061212E+00
          0                16           2             4    7     1      -0.1041061360E-02       4    7    1        -0.5434767973E-01      0.1331221792E+00
          0                17           2             4    7     1      -0.8793409350E-03       4    7    1        -0.4590520866E-01      0.1124427300E+00
          0                18           2             4    7     1      -0.7431566947E-03       4    7    1        -0.3879583159E-01      0.9502863373E-01
          0                19           2             4    7     1      -0.6283683643E-03       4    7    1        -0.3280340907E-01      0.8035046664E-01
          0                20           2             4    7     1      -0.5315171274E-03       4    7    1        -0.2774737658E-01      0.6796594426E-01
                                                   Max.-Head-Change                         Max.-Flux-Residual
  Residual-Control   Outer-Iter.   Inner-Iter.     Column Row Layer    Maximum-Head-Change  Column Row Layer    Maximum-Flux-Residual          L2-NORM 
          0                21           2             4    7     1      -0.4497336723E-03       4    7    1        -0.2347794428E-01      0.5750816331E-01
          0                22           2             4    7     1      -0.3806200457E-03       5    7    1        -0.1987062602E-01      0.4867198303E-01
          0                23           2             4    7     1      -0.3222222759E-03       4    7    1        -0.1682132844E-01      0.4120292842E-01
          0                24           2             4    7     1      -0.2728374624E-03       4    7    1        -0.1424323536E-01      0.3488817743E-01
          0                25           2             4    7     1      -0.2310643080E-03       4    7    1        -0.1206250547E-01      0.2954656100E-01
          0                26           2             4    7     1      -0.1957093660E-03       4    7    1        -0.1021683231E-01      0.2502566976E-01
          0                27           2             4    7     1      -0.1657776261E-03       4    7    1        -0.8654272584E-02      0.2119825014E-01
          0                28           2             4    7     1      -0.1404369124E-03       4    7    1        -0.7331383316E-02      0.1795789267E-01
          0                29           2             4    7     1      -0.1189849147E-03       4    7    1        -0.6211500974E-02      0.1521479144E-01
          0                30           1             4    7     1      -0.1008159426E-03       4    7    1        -0.5263005983E-02      0.1289149577E-01
          0                31           1             4    7     1      -0.8542424920E-04       4    7    1        -0.4459496485E-02      0.1092333560E-01

    ------------------------------------------------
       NWT REQUIRED           31 OUTER ITERATIONS 
       AND A TOTAL OF         60 INNER ITERATIONS.
    ------------------------------------------------

 NO OUTPUT CONTROL FOR STRESS PERIOD   44   TIME STEP   13
 
 SOLVING FOR HEAD 
                                                   Max.-Head-Change                         Max.-Flux-Residual
  Residual-Control   Outer-Iter.   Inner-Iter.     Column Row Layer    Maximum-Head-Change  Column Row Layer    Maximum-Flux-Residual          L2-NORM 
          0                 1           2             4    7     1      -0.1380739571E+00       4    7    1        -0.7259556962E+01      0.1516624955E+02
          0                 2           2             5    8     1      -0.6365469801E-02       5    8    1        -0.3510707180E+00      0.8377009756E+00
          0                 3           2             4    7     1      -0.1220069206E-01       4    7    1        -0.6374621806E+00      0.1523647175E+01
          0                 4           2             4    7     1      -0.8816465433E-02       5    8    1        -0.4628652651E+00      0.1131048188E+01
          0                 5           2             4    7     1      -0.7340800723E-02       4    7    1        -0.3832243360E+00      0.9383100701E+00
          0                 6           2             4    7     1      -0.6047627309E-02       5    6    1        -0.3157274112E+00      0.7733534942E+00
          0                 7           2             4    7     1      -0.5017571380E-02       4    7    1        -0.2619368832E+00      0.6415985284E+00
          0                 8           2             4    7     1      -0.4178229860E-02       4    7    1        -0.2181199011E+00      0.5342750906E+00
          0                 9           2             4    7     1      -0.3490240912E-02       4    7    1        -0.1822041911E+00      0.4463008019E+00
          0                10           2             4    7     1      -0.2922849436E-02       4    7    1        -0.1525841363E+00      0.3737478869E+00
                                                   Max.-Head-Change                         Max.-Flux-Residual
  Residual-Control   Outer-Iter.   Inner-Iter.     Column Row Layer    Maximum-Head-Change  Column Row Layer    Maximum-Flux-Residual          L2-NORM 
          0                11           2             4    7     1      -0.2452696868E-02       4    7    1        -0.1280403353E+00      0.3136289706E+00
          0                12           2             4    7     1      -0.2061586131E-02       4    7    1        -0.1076228009E+00      0.2636179353E+00
          0                13           2             4    7     1      -0.1735241108E-02       4    7    1        -0.9058634677E-01      0.2218870638E+00
          0                14           2             4    7     1      -0.1462211873E-02       4    7    1        -0.7633315297E-01      0.1869746019E+00
          0                15           2             4    7     1      -0.1233321370E-02       4    7    1        -0.6438417679E-01      0.1577061208E+00
          0                16           2             4    7     1      -0.1041065664E-02       4    7    1        -0.5434767970E-01      0.1331221789E+00
          0                17           2             4    7     1      -0.8793445692E-03       4    7    1        -0.4590520861E-01      0.1124427297E+00
          0                18           2             4    7     1      -0.7431597662E-03       4    7    1        -0.3879583156E-01      0.9502863347E-01
          0                19           2             4    7     1      -0.6283709613E-03       4    7    1        -0.3280340903E-01      0.8035046644E-01
          0                20           2             4    7     1      -0.5315193241E-03       4    7    1        -0.2774737656E-01      0.6796594410E-01
                                                   Max.-Head-Change                         Max.-Flux-Residual
  Residual-Control   Outer-Iter.   Inner-Iter.     Column Row Layer    Maximum-Head-Change  Column Row Layer    Maximum-Flux-Residual          L2-NORM 
          0                21           2             4    7     1      -0.4497355312E-03       4    7    1        -0.2347794427E-01      0.5750816319E-01
          0                22           2             4    7     1      -0.3806216182E-03       5    7    1        -0.1987062597E-01      0.4867198290E-01
          0                23           2             4    7     1      -0.3222236077E-03       4    7    1        -0.1682132844E-01      0.4120292831E-01
          0                24           2             4    7     1      -0.2728385904E-03       4    7    1        -0.1424323536E-01      0.3488817734E-01
          0                25           2             4    7     1      -0.2310652628E-03       4    7    1        -0.1206250545E-01      0.2954656091E-01
          0                26           2             4    7     1      -0.1957101749E-03       4    7    1        -0.1021683231E-01      0.2502566971E-01
          0                27           2             4    7     1      -0.1657783109E-03       4    7    1        -0.8654272583E-02      0.2119825008E-01
          0                28           2             4    7     1      -0.1404374935E-03       4    7    1        -0.7331383344E-02      0.1795789267E-01
          0                29           2             4    7     1      -0.1189854064E-03       4    7    1        -0.6211500962E-02      0.1521479139E-01
          0                30           1             4    7     1      -0.1008163592E-03       4    7    1        -0.5263005972E-02      0.1289149573E-01
          0                31           1             4    7     1      -0.8542460236E-04       4    7    1        -0.4459496474E-02      0.1092333555E-01

    ------------------------------------------------
       NWT REQUIRED           31 OUTER ITERATIONS 
       AND A TOTAL OF         60 INNER ITERATIONS.
    ------------------------------------------------

 NO OUTPUT CONTROL FOR STRESS PERIOD   44   TIME STEP   14
 
 SOLVING FOR HEAD 
                                                   Max.-Head-Change                         Max.-Flux-Residual
  Residual-Control   Outer-Iter.   Inner-Iter.     Column Row Layer    Maximum-Head-Change  Column Row Layer    Maximum-Flux-Residual          L2-NORM 
          0                 1           2             4    7     1      -0.1359991658E+00       4    7    1        -0.7152404249E+01      0.1492431799E+02
          0                 2           2             5    8     1      -0.6680135111E-02       5    8    1        -0.3682046828E+00      0.8779618743E+00
          0                 3           2             4    7     1      -0.1217998959E-01       4    7    1        -0.6363916565E+00      0.1520107213E+01
          0                 4           2             4    7     1      -0.8818577775E-02       5    8    1        -0.4630352324E+00      0.1131405788E+01
          0                 5           2             4    7     1      -0.7340623970E-02       4    7    1        -0.3832136499E+00      0.9382743779E+00
          0                 6           2             4    7     1      -0.6047673424E-02       5    6    1        -0.3157290960E+00      0.7733570594E+00
          0                 7           2             4    7     1      -0.5017590346E-02       4    7    1        -0.2619367762E+00      0.6415981703E+00
          0                 8           2             4    7     1      -0.4178247589E-02       4    7    1        -0.2181199116E+00      0.5342751250E+00
          0                 9           2             4    7     1      -0.3490255529E-02       4    7    1        -0.1822041899E+00      0.4463007973E+00
          0                10           2             4    7     1      -0.2922861695E-02       4    7    1        -0.1525841363E+00      0.3737478863E+00
                                                   Max.-Head-Change                         Max.-Flux-Residual
  Residual-Control   Outer-Iter.   Inner-Iter.     Column Row Layer    Maximum-Head-Change  Column Row Layer    Maximum-Flux-Residual          L2-NORM 
          0                11           2             4    7     1      -0.2452707154E-02       4    7    1        -0.1280403352E+00      0.3136289698E+00
          0                12           2             4    7     1      -0.2061594776E-02       4    7    1        -0.1076228008E+00      0.2636179347E+00
          0                13           2             4    7     1      -0.1735248385E-02       4    7    1        -0.9058634671E-01      0.2218870633E+00
          0                14           2             4    7     1      -0.1462218004E-02       4    7    1        -0.7633315290E-01      0.1869746015E+00
          0                15           2             4    7     1      -0.1233326542E-02       4    7    1        -0.6438417673E-01      0.1577061205E+00
          0                16           2             4    7     1      -0.1041070029E-02       4    7    1        -0.5434767964E-01      0.1331221786E+00
          0                17           2             4    7     1      -0.8793482569E-03       4    7    1        -0.4590520860E-01      0.1124427294E+00
          0                18           2             4    7     1      -0.7431628831E-03       4    7    1        -0.3879583155E-01      0.9502863324E-01
          0                19           2             4    7     1      -0.6283735965E-03       4    7    1        -0.3280340901E-01      0.8035046623E-01
          0                20           2             4    7     1      -0.5315215530E-03       4    7    1        -0.2774737653E-01      0.6796594395E-01
                                                   Max.-Head-Change                         Max.-Flux-Residual
  Residual-Control   Outer-Iter.   Inner-Iter.     Column Row Layer    Maximum-Head-Change  Column Row Layer    Maximum-Flux-Residual          L2-NORM 
          0                21           2             4    7     1      -0.4497374174E-03       4    7    1        -0.2347794426E-01      0.5750816303E-01
          0                22           2             4    7     1      -0.3806232145E-03       5    7    1        -0.1987062595E-01      0.4867198280E-01
          0                23           2             4    7     1      -0.3222249586E-03       4    7    1        -0.1682132841E-01      0.4120292820E-01
          0                24           2             4    7     1      -0.2728397347E-03       4    7    1        -0.1424323536E-01      0.3488817726E-01
          0                25           2             4    7     1      -0.2310662315E-03       4    7    1        -0.1206250545E-01      0.2954656086E-01
          0                26           2             4    7     1      -0.1957109964E-03       4    7    1        -0.1021683232E-01      0.2502566964E-01
          0                27           2             4    7     1      -0.1657790059E-03       4    7    1        -0.8654272550E-02      0.2119825002E-01
          0                28           2             4    7     1      -0.1404380820E-03       4    7    1        -0.7331383320E-02      0.1795789262E-01
          0                29           2             4    7     1      -0.1189859055E-03       4    7    1        -0.6211500967E-02      0.1521479135E-01
          0                30           1             4    7     1      -0.1008167821E-03       4    7    1        -0.5263005972E-02      0.1289149572E-01
          0                31           1             4    7     1      -0.8542496052E-04       4    7    1        -0.4459496472E-02      0.1092333553E-01

    ------------------------------------------------
       NWT REQUIRED           31 OUTER ITERATIONS 
       AND A TOTAL OF         60 INNER ITERATIONS.
    ------------------------------------------------

 NO OUTPUT CONTROL FOR STRESS PERIOD   44   TIME STEP   15
 
 SOLVING FOR HEAD 
                                                   Max.-Head-Change                         Max.-Flux-Residual
  Residual-Control   Outer-Iter.   Inner-Iter.     Column Row Layer    Maximum-Head-Change  Column Row Layer    Maximum-Flux-Residual          L2-NORM 
          0                 1           2             4    7     1      -0.1339152849E+00       4    7    1        -0.7044603046E+01      0.1469428012E+02
          0                 2           2             5    8     1      -0.6980671253E-02       5    8    1        -0.3845553930E+00      0.9167608703E+00
          0                 3           2             4    7     1      -0.1215919691E-01       4    7    1        -0.6353146296E+00      0.1516669353E+01
          0                 4           2             4    7     1      -0.8820699675E-02       5    8    1        -0.4631974577E+00      0.1131753108E+01
          0                 5           2             4    7     1      -0.7340446704E-02       4    7    1        -0.3832028983E+00      0.9382397098E+00
          0                 6           2             4    7     1      -0.6047719955E-02       5    6    1        -0.3157307086E+00      0.7733605225E+00
          0                 7           2             4    7     1      -0.5017609573E-02       4    7    1        -0.2619366685E+00      0.6415978225E+00
          0                 8           2             4    7     1      -0.4178265544E-02       4    7    1        -0.2181199222E+00      0.5342751585E+00
          0                 9           2             4    7     1      -0.3490270332E-02       4    7    1        -0.1822041887E+00      0.4463007928E+00
          0                10           2             4    7     1      -0.2922874112E-02       4    7    1        -0.1525841363E+00      0.3737478859E+00
                                                   Max.-Head-Change                         Max.-Flux-Residual
  Residual-Control   Outer-Iter.   Inner-Iter.     Column Row Layer    Maximum-Head-Change  Column Row Layer    Maximum-Flux-Residual          L2-NORM 
          0                11           2             4    7     1      -0.2452717571E-02       4    7    1        -0.1280403351E+00      0.3136289692E+00
          0                12           2             4    7     1      -0.2061603532E-02       4    7    1        -0.1076228007E+00      0.2636179341E+00
          0                13           2             4    7     1      -0.1735255755E-02       4    7    1        -0.9058634665E-01      0.2218870628E+00
          0                14           2             4    7     1      -0.1462224215E-02       4    7    1        -0.7633315286E-01      0.1869746011E+00
          0                15           2             4    7     1      -0.1233331780E-02       4    7    1        -0.6438417669E-01      0.1577061201E+00
          0                16           2             4    7     1      -0.1041074451E-02       4    7    1        -0.5434767964E-01      0.1331221783E+00
          0                17           2             4    7     1      -0.8793519915E-03       4    7    1        -0.4590520856E-01      0.1124427292E+00
          0                18           2             4    7     1      -0.7431660393E-03       4    7    1        -0.3879583152E-01      0.9502863305E-01
          0                19           2             4    7     1      -0.6283762655E-03       4    7    1        -0.3280340900E-01      0.8035046607E-01
          0                20           2             4    7     1      -0.5315238104E-03       4    7    1        -0.2774737651E-01      0.6796594381E-01
                                                   Max.-Head-Change                         Max.-Flux-Residual
  Residual-Control   Outer-Iter.   Inner-Iter.     Column Row Layer    Maximum-Head-Change  Column Row Layer    Maximum-Flux-Residual          L2-NORM 
          0                21           2             4    7     1      -0.4497393275E-03       4    7    1        -0.2347794424E-01      0.5750816295E-01
          0                22           2             4    7     1      -0.3806248312E-03       5    7    1        -0.1987062593E-01      0.4867198272E-01
          0                23           2             4    7     1      -0.3222263267E-03       4    7    1        -0.1682132839E-01      0.4120292813E-01
          0                24           2             4    7     1      -0.2728408941E-03       4    7    1        -0.1424323536E-01      0.3488817719E-01
          0                25           2             4    7     1      -0.2310672128E-03       4    7    1        -0.1206250542E-01      0.2954656082E-01
          0                26           2             4    7     1      -0.1957118270E-03       4    7    1        -0.1021683231E-01      0.2502566961E-01
          0                27           2             4    7     1      -0.1657797105E-03       4    7    1        -0.8654272576E-02      0.2119824999E-01
          0                28           2             4    7     1      -0.1404386785E-03       4    7    1        -0.7331383315E-02      0.1795789265E-01
          0                29           2             4    7     1      -0.1189864110E-03       4    7    1        -0.6211500962E-02      0.1521479137E-01
          0                30           1             4    7     1      -0.1008172101E-03       4    7    1        -0.5263005957E-02      0.1289149568E-01
          0                31           1             4    7     1      -0.8542532330E-04       4    7    1        -0.4459496469E-02      0.1092333563E-01

    ------------------------------------------------
       NWT REQUIRED           31 OUTER ITERATIONS 
       AND A TOTAL OF         60 INNER ITERATIONS.
    ------------------------------------------------

 NO OUTPUT CONTROL FOR STRESS PERIOD   44   TIME STEP   16
 
 SOLVING FOR HEAD 
                                                   Max.-Head-Change                         Max.-Flux-Residual
  Residual-Control   Outer-Iter.   Inner-Iter.     Column Row Layer    Maximum-Head-Change  Column Row Layer    Maximum-Flux-Residual          L2-NORM 
          0                 1           2             4    7     1      -0.1318257444E+00       4    7    1        -0.6936345550E+01      0.1447539406E+02
          0                 2           2             5    8     1      -0.7267919227E-02       5    8    1        -0.4001718932E+00      0.9542038690E+00
          0                 3           2             4    7     1      -0.1213834824E-01       4    7    1        -0.6342330210E+00      0.1513329394E+01
          0                 4           2             4    7     1      -0.8822827636E-02       5    8    1        -0.4633524148E+00      0.1132090563E+01
          0                 5           2             4    7     1      -0.7340269210E-02       4    7    1        -0.3831921003E+00      0.9382060254E+00
          0                 6           2             4    7     1      -0.6047766821E-02       5    6    1        -0.3157322530E+00      0.7733638884E+00
          0                 7           2             4    7     1      -0.5017629025E-02       4    7    1        -0.2619365604E+00      0.6415974853E+00
          0                 8           2             4    7     1      -0.4178283692E-02       4    7    1        -0.2181199329E+00      0.5342751916E+00
          0                 9           2             4    7     1      -0.3490285296E-02       4    7    1        -0.1822041875E+00      0.4463007891E+00
          0                10           2             4    7     1      -0.2922886663E-02       4    7    1        -0.1525841363E+00      0.3737478859E+00
                                                   Max.-Head-Change                         Max.-Flux-Residual
  Residual-Control   Outer-Iter.   Inner-Iter.     Column Row Layer    Maximum-Head-Change  Column Row Layer    Maximum-Flux-Residual          L2-NORM 
          0                11           2             4    7     1      -0.2452728101E-02       4    7    1        -0.1280403350E+00      0.3136289688E+00
          0                12           2             4    7     1      -0.2061612383E-02       4    7    1        -0.1076228007E+00      0.2636179339E+00
          0                13           2             4    7     1      -0.1735263205E-02       4    7    1        -0.9058634661E-01      0.2218870626E+00
          0                14           2             4    7     1      -0.1462230493E-02       4    7    1        -0.7633315281E-01      0.1869746009E+00
          0                15           2             4    7     1      -0.1233337076E-02       4    7    1        -0.6438417665E-01      0.1577061200E+00
          0                16           2             4    7     1      -0.1041078921E-02       4    7    1        -0.5434767960E-01      0.1331221782E+00
          0                17           2             4    7     1      -0.8793557673E-03       4    7    1        -0.4590520853E-01      0.1124427291E+00
          0                18           2             4    7     1      -0.7431692295E-03       4    7    1        -0.3879583147E-01      0.9502863294E-01
          0                19           2             4    7     1      -0.6283789636E-03       4    7    1        -0.3280340898E-01      0.8035046601E-01
          0                20           2             4    7     1      -0.5315260924E-03       4    7    1        -0.2774737649E-01      0.6796594373E-01
                                                   Max.-Head-Change                         Max.-Flux-Residual
  Residual-Control   Outer-Iter.   Inner-Iter.     Column Row Layer    Maximum-Head-Change  Column Row Layer    Maximum-Flux-Residual          L2-NORM 
          0                21           2             4    7     1      -0.4497412587E-03       4    7    1        -0.2347794423E-01      0.5750816288E-01
          0                22           2             4    7     1      -0.3806264648E-03       5    7    1        -0.1987062588E-01      0.4867198263E-01
          0                23           2             4    7     1      -0.3222277108E-03       4    7    1        -0.1682132839E-01      0.4120292808E-01
          0                24           2             4    7     1      -0.2728420650E-03       4    7    1        -0.1424323534E-01      0.3488817714E-01
          0                25           2             4    7     1      -0.2310682053E-03       4    7    1        -0.1206250543E-01      0.2954656075E-01
          0                26           2             4    7     1      -0.1957126671E-03       4    7    1        -0.1021683229E-01      0.2502566956E-01
          0                27           2             4    7     1      -0.1657804222E-03       4    7    1        -0.8654272563E-02      0.2119824997E-01
          0                28           2             4    7     1      -0.1404392817E-03       4    7    1        -0.7331383312E-02      0.1795789255E-01
          0                29           2             4    7     1      -0.1189869215E-03       4    7    1        -0.6211500942E-02      0.1521479128E-01
          0                30           1             4    7     1      -0.1008176434E-03       4    7    1        -0.5263005962E-02      0.1289149567E-01
          0                31           1             4    7     1      -0.8542568996E-04       4    7    1        -0.4459496449E-02      0.1092333549E-01

    ------------------------------------------------
       NWT REQUIRED           31 OUTER ITERATIONS 
       AND A TOTAL OF         60 INNER ITERATIONS.
    ------------------------------------------------

 NO OUTPUT CONTROL FOR STRESS PERIOD   44   TIME STEP   17
 
 SOLVING FOR HEAD 
                                                   Max.-Head-Change                         Max.-Flux-Residual
  Residual-Control   Outer-Iter.   Inner-Iter.     Column Row Layer    Maximum-Head-Change  Column Row Layer    Maximum-Flux-Residual          L2-NORM 
          0                 1           2             4    7     1      -0.1297331881E+00       4    7    1        -0.6827780616E+01      0.1426699109E+02
          0                 2           2             5    8     1      -0.7542770112E-02       5    8    1        -0.4150998105E+00      0.9903018464E+00
          0                 3           2             4    7     1      -0.1211746993E-01       4    7    1        -0.6331483188E+00      0.1510082948E+01
          0                 4           2             4    7     1      -0.8824958965E-02       5    8    1        -0.4635005828E+00      0.1132418574E+01
          0                 5           2             4    7     1      -0.7340091710E-02       4    7    1        -0.3831812710E+00      0.9381732823E+00
          0                 6           2             4    7     1      -0.6047813961E-02       5    6    1        -0.3157337332E+00      0.7733671609E+00
          0                 7           2             4    7     1      -0.5017648677E-02       4    7    1        -0.2619364520E+00      0.6415971580E+00
          0                 8           2             4    7     1      -0.4178302008E-02       4    7    1        -0.2181199435E+00      0.5342752242E+00
          0                 9           2             4    7     1      -0.3490300401E-02       4    7    1        -0.1822041863E+00      0.4463007857E+00
          0                10           2             4    7     1      -0.2922899331E-02       4    7    1        -0.1525841364E+00      0.3737478861E+00
                                                   Max.-Head-Change                         Max.-Flux-Residual
  Residual-Control   Outer-Iter.   Inner-Iter.     Column Row Layer    Maximum-Head-Change  Column Row Layer    Maximum-Flux-Residual          L2-NORM 
          0                11           2             4    7     1      -0.2452738730E-02       4    7    1        -0.1280403349E+00      0.3136289687E+00
          0                12           2             4    7     1      -0.2061621318E-02       4    7    1        -0.1076228006E+00      0.2636179338E+00
          0                13           2             4    7     1      -0.1735270725E-02       4    7    1        -0.9058634653E-01      0.2218870626E+00
          0                14           2             4    7     1      -0.1462236830E-02       4    7    1        -0.7633315275E-01      0.1869746009E+00
          0                15           2             4    7     1      -0.1233342420E-02       4    7    1        -0.6438417660E-01      0.1577061200E+00
          0                16           2             4    7     1      -0.1041083432E-02       4    7    1        -0.5434767956E-01      0.1331221782E+00
          0                17           2             4    7     1      -0.8793595778E-03       4    7    1        -0.4590520851E-01      0.1124427291E+00
          0                18           2             4    7     1      -0.7431724508E-03       4    7    1        -0.3879583147E-01      0.9502863294E-01
          0                19           2             4    7     1      -0.6283816865E-03       4    7    1        -0.3280340895E-01      0.8035046611E-01
          0                20           2             4    7     1      -0.5315283959E-03       4    7    1        -0.2774737648E-01      0.6796594382E-01
                                                   Max.-Head-Change                         Max.-Flux-Residual
  Residual-Control   Outer-Iter.   Inner-Iter.     Column Row Layer    Maximum-Head-Change  Column Row Layer    Maximum-Flux-Residual          L2-NORM 
          0                21           2             4    7     1      -0.4497432076E-03       4    7    1        -0.2347794422E-01      0.5750816288E-01
          0                22           2             4    7     1      -0.3806281142E-03       5    7    1        -0.1987062586E-01      0.4867198266E-01
          0                23           2             4    7     1      -0.3222291071E-03       4    7    1        -0.1682132839E-01      0.4120292809E-01
          0                24           2             4    7     1      -0.2728432476E-03       4    7    1        -0.1424323534E-01      0.3488817716E-01
          0                25           2             4    7     1      -0.2310692065E-03       4    7    1        -0.1206250541E-01      0.2954656076E-01
          0                26           2             4    7     1      -0.1957135155E-03       4    7    1        -0.1021683228E-01      0.2502566958E-01
          0                27           2             4    7     1      -0.1657811401E-03       4    7    1        -0.8654272546E-02      0.2119824999E-01
          0                28           2             4    7     1      -0.1404398903E-03       4    7    1        -0.7331383323E-02      0.1795789257E-01
          0                29           2             4    7     1      -0.1189874375E-03       4    7    1        -0.6211500960E-02      0.1521479131E-01
          0                30           1             4    7     1      -0.1008180801E-03       4    7    1        -0.5263005959E-02      0.1289149575E-01
          0                31           1             4    7     1      -0.8542606025E-04       4    7    1        -0.4459496457E-02      0.1092333552E-01

    ------------------------------------------------
       NWT REQUIRED           31 OUTER ITERATIONS 
       AND A TOTAL OF         60 INNER ITERATIONS.
    ------------------------------------------------

 NO OUTPUT CONTROL FOR STRESS PERIOD   44   TIME STEP   18
 
 SOLVING FOR HEAD 
                                                   Max.-Head-Change                         Max.-Flux-Residual
  Residual-Control   Outer-Iter.   Inner-Iter.     Column Row Layer    Maximum-Head-Change  Column Row Layer    Maximum-Flux-Residual          L2-NORM 
          0                 1           2             4    7     1      -0.1276405759E+00       4    7    1        -0.6719074244E+01      0.1406838968E+02
          0                 2           2             5    8     1      -0.7806025319E-02       5    8    1        -0.4293814139E+00      0.1025077245E+01
          0                 3           2             4    7     1      -0.1209659151E-01       4    7    1        -0.6320621831E+00      0.1506926017E+01
          0                 4           2             4    7     1      -0.8827090643E-02       5    8    1        -0.4636423905E+00      0.1132737519E+01
          0                 5           2             4    7     1      -0.7339914452E-02       4    7    1        -0.3831704269E+00      0.9381414404E+00
          0                 6           2             4    7     1      -0.6047861304E-02       5    6    1        -0.3157351528E+00      0.7733703422E+00
          0                 7           2             4    7     1      -0.5017668497E-02       4    7    1        -0.2619363434E+00      0.6415968388E+00
          0                 8           2             4    7     1      -0.4178320465E-02       4    7    1        -0.2181199543E+00      0.5342752552E+00
          0                 9           2             4    7     1      -0.3490315623E-02       4    7    1        -0.1822041851E+00      0.4463007818E+00
          0                10           2             4    7     1      -0.2922912099E-02       4    7    1        -0.1525841364E+00      0.3737478859E+00
                                                   Max.-Head-Change                         Max.-Flux-Residual
  Residual-Control   Outer-Iter.   Inner-Iter.     Column Row Layer    Maximum-Head-Change  Column Row Layer    Maximum-Flux-Residual          L2-NORM 
          0                11           2             4    7     1      -0.2452749441E-02       4    7    1        -0.1280403348E+00      0.3136289682E+00
          0                12           2             4    7     1      -0.2061630321E-02       4    7    1        -0.1076228005E+00      0.2636179334E+00
          0                13           2             4    7     1      -0.1735278303E-02       4    7    1        -0.9058634649E-01      0.2218870622E+00
          0                14           2             4    7     1      -0.1462243216E-02       4    7    1        -0.7633315272E-01      0.1869746006E+00
          0                15           2             4    7     1      -0.1233347807E-02       4    7    1        -0.6438417656E-01      0.1577061197E+00
          0                16           2             4    7     1      -0.1041087979E-02       4    7    1        -0.5434767954E-01      0.1331221779E+00
          0                17           2             4    7     1      -0.8793634185E-03       4    7    1        -0.4590520848E-01      0.1124427289E+00
          0                18           2             4    7     1      -0.7431756961E-03       4    7    1        -0.3879583144E-01      0.9502863278E-01
          0                19           2             4    7     1      -0.6283844310E-03       4    7    1        -0.3280340894E-01      0.8035046587E-01
          0                20           2             4    7     1      -0.5315307169E-03       4    7    1        -0.2774737645E-01      0.6796594360E-01
                                                   Max.-Head-Change                         Max.-Flux-Residual
  Residual-Control   Outer-Iter.   Inner-Iter.     Column Row Layer    Maximum-Head-Change  Column Row Layer    Maximum-Flux-Residual          L2-NORM 
          0                21           2             4    7     1      -0.4497451719E-03       4    7    1        -0.2347794421E-01      0.5750816278E-01
          0                22           2             4    7     1      -0.3806297763E-03       5    7    1        -0.1987062584E-01      0.4867198256E-01
          0                23           2             4    7     1      -0.3222305144E-03       4    7    1        -0.1682132838E-01      0.4120292801E-01
          0                24           2             4    7     1      -0.2728444392E-03       4    7    1        -0.1424323533E-01      0.3488817711E-01
          0                25           2             4    7     1      -0.2310702157E-03       4    7    1        -0.1206250542E-01      0.2954656070E-01
          0                26           2             4    7     1      -0.1957143701E-03       4    7    1        -0.1021683229E-01      0.2502566952E-01
          0                27           2             4    7     1      -0.1657818647E-03       4    7    1        -0.8654272563E-02      0.2119824993E-01
          0                28           2             4    7     1      -0.1404405040E-03       4    7    1        -0.7331383310E-02      0.1795789252E-01
          0                29           2             4    7     1      -0.1189879566E-03       4    7    1        -0.6211500924E-02      0.1521479126E-01
          0                30           1             4    7     1      -0.1008185203E-03       4    7    1        -0.5263005963E-02      0.1289149565E-01
          0                31           1             4    7     1      -0.8542643342E-04       4    7    1        -0.4459496462E-02      0.1092333549E-01

    ------------------------------------------------
       NWT REQUIRED           31 OUTER ITERATIONS 
       AND A TOTAL OF         60 INNER ITERATIONS.
    ------------------------------------------------

 NO OUTPUT CONTROL FOR STRESS PERIOD   44   TIME STEP   19
 
 SOLVING FOR HEAD 
                                                   Max.-Head-Change                         Max.-Flux-Residual
  Residual-Control   Outer-Iter.   Inner-Iter.     Column Row Layer    Maximum-Head-Change  Column Row Layer    Maximum-Flux-Residual          L2-NORM 
          0                 1           2             4    7     1      -0.1255501069E+00       4    7    1        -0.6610350948E+01      0.1387900953E+02
          0                 2           2             5    8     1      -0.8058288044E-02       5    8    1        -0.4430582476E+00      0.1058695766E+01
          0                 3           2             4    7     1      -0.1207573489E-01       4    7    1        -0.6309758582E+00      0.1503855225E+01
          0                 4           2             4    7     1      -0.8829220425E-02       5    8    1        -0.4637781981E+00      0.1133047754E+01
          0                 5           2             4    7     1      -0.7339737619E-02       4    7    1        -0.3831595804E+00      0.9381104664E+00
          0                 6           2             4    7     1      -0.6047908800E-02       5    6    1        -0.3157365153E+00      0.7733734370E+00
          0                 7           2             4    7     1      -0.5017688463E-02       4    7    1        -0.2619362348E+00      0.6415965284E+00
          0                 8           2             4    7     1      -0.4178339042E-02       4    7    1        -0.2181199650E+00      0.5342752855E+00
          0                 9           2             4    7     1      -0.3490330945E-02       4    7    1        -0.1822041839E+00      0.4463007781E+00
          0                10           2             4    7     1      -0.2922924950E-02       4    7    1        -0.1525841364E+00      0.3737478857E+00
                                                   Max.-Head-Change                         Max.-Flux-Residual
  Residual-Control   Outer-Iter.   Inner-Iter.     Column Row Layer    Maximum-Head-Change  Column Row Layer    Maximum-Flux-Residual          L2-NORM 
          0                11           2             4    7     1      -0.2452760223E-02       4    7    1        -0.1280403347E+00      0.3136289678E+00
          0                12           2             4    7     1      -0.2061639383E-02       4    7    1        -0.1076228005E+00      0.2636179331E+00
          0                13           2             4    7     1      -0.1735285931E-02       4    7    1        -0.9058634645E-01      0.2218870619E+00
          0                14           2             4    7     1      -0.1462249644E-02       4    7    1        -0.7633315269E-01      0.1869746003E+00
          0                15           2             4    7     1      -0.1233353228E-02       4    7    1        -0.6438417652E-01      0.1577061195E+00
          0                16           2             4    7     1      -0.1041092555E-02       4    7    1        -0.5434767950E-01      0.1331221778E+00
          0                17           2             4    7     1      -0.8793672841E-03       4    7    1        -0.4590520845E-01      0.1124427287E+00
          0                18           2             4    7     1      -0.7431789628E-03       4    7    1        -0.3879583141E-01      0.9502863267E-01
          0                19           2             4    7     1      -0.6283871934E-03       4    7    1        -0.3280340893E-01      0.8035046578E-01
          0                20           2             4    7     1      -0.5315330537E-03       4    7    1        -0.2774737644E-01      0.6796594352E-01
                                                   Max.-Head-Change                         Max.-Flux-Residual
  Residual-Control   Outer-Iter.   Inner-Iter.     Column Row Layer    Maximum-Head-Change  Column Row Layer    Maximum-Flux-Residual          L2-NORM 
          0                21           2             4    7     1      -0.4497471486E-03       4    7    1        -0.2347794419E-01      0.5750816269E-01
          0                22           2             4    7     1      -0.3806314496E-03       5    7    1        -0.1987062581E-01      0.4867198250E-01
          0                23           2             4    7     1      -0.3222319307E-03       4    7    1        -0.1682132836E-01      0.4120292796E-01
          0                24           2             4    7     1      -0.2728456384E-03       4    7    1        -0.1424323532E-01      0.3488817706E-01
          0                25           2             4    7     1      -0.2310712315E-03       4    7    1        -0.1206250542E-01      0.2954656068E-01
          0                26           2             4    7     1      -0.1957152304E-03       4    7    1        -0.1021683228E-01      0.2502566950E-01
          0                27           2             4    7     1      -0.1657825935E-03       4    7    1        -0.8654272561E-02      0.2119824990E-01
          0                28           2             4    7     1      -0.1404411211E-03       4    7    1        -0.7331383302E-02      0.1795789251E-01
          0                29           2             4    7     1      -0.1189884800E-03       4    7    1        -0.6211500928E-02      0.1521479126E-01
          0                30           1             4    7     1      -0.1008189632E-03       4    7    1        -0.5263005939E-02      0.1289149562E-01
          0                31           1             4    7     1      -0.8542680884E-04       4    7    1        -0.4459496458E-02      0.1092333547E-01

    ------------------------------------------------
       NWT REQUIRED           31 OUTER ITERATIONS 
       AND A TOTAL OF         60 INNER ITERATIONS.
    ------------------------------------------------

 NO OUTPUT CONTROL FOR STRESS PERIOD   44   TIME STEP   20
 
 SOLVING FOR HEAD 
                                                   Max.-Head-Change                         Max.-Flux-Residual
  Residual-Control   Outer-Iter.   Inner-Iter.     Column Row Layer    Maximum-Head-Change  Column Row Layer    Maximum-Flux-Residual          L2-NORM 
          0                 1           2             4    7     1      -0.1234641869E+00       4    7    1        -0.6501746417E+01      0.1369842172E+02
          0                 2           2             5    8     1      -0.8301087042E-02       5    8    1        -0.4561167095E+00      0.1091177229E+01
          0                 3           2             4    7     1      -0.1205493847E-01       4    7    1        -0.6298907010E+00      0.1500867549E+01
          0                 4           2             4    7     1      -0.8831344419E-02       5    8    1        -0.4639136270E+00      0.1133349635E+01
          0                 5           2             4    7     1      -0.7339561555E-02       4    7    1        -0.3831487452E+00      0.9380803254E+00
          0                 6           2             4    7     1      -0.6047956375E-02       5    6    1        -0.3157378239E+00      0.7733764487E+00
          0                 7           2             4    7     1      -0.5017708551E-02       4    7    1        -0.2619361264E+00      0.6415962265E+00
          0                 8           2             4    7     1      -0.4178357714E-02       4    7    1        -0.2181199757E+00      0.5342753150E+00
          0                 9           2             4    7     1      -0.3490346348E-02       4    7    1        -0.1822041827E+00      0.4463007746E+00
          0                10           2             4    7     1      -0.2922937867E-02       4    7    1        -0.1525841364E+00      0.3737478855E+00
                                                   Max.-Head-Change                         Max.-Flux-Residual
  Residual-Control   Outer-Iter.   Inner-Iter.     Column Row Layer    Maximum-Head-Change  Column Row Layer    Maximum-Flux-Residual          L2-NORM 
          0                11           2             4    7     1      -0.2452771062E-02       4    7    1        -0.1280403347E+00      0.3136289674E+00
          0                12           2             4    7     1      -0.2061648493E-02       4    7    1        -0.1076228004E+00      0.2636179328E+00
          0                13           2             4    7     1      -0.1735293600E-02       4    7    1        -0.9058634641E-01      0.2218870617E+00
          0                14           2             4    7     1      -0.1462256105E-02       4    7    1        -0.7633315264E-01      0.1869746001E+00
          0                15           2             4    7     1      -0.1233358678E-02       4    7    1        -0.6438417649E-01      0.1577061193E+00
          0                16           2             4    7     1      -0.1041097156E-02       4    7    1        -0.5434767947E-01      0.1331221776E+00
          0                17           2             4    7     1      -0.8793711700E-03       4    7    1        -0.4590520844E-01      0.1124427286E+00
          0                18           2             4    7     1      -0.7431822472E-03       4    7    1        -0.3879583139E-01      0.9502863255E-01
          0                19           2             4    7     1      -0.6283899698E-03       4    7    1        -0.3280340890E-01      0.8035046568E-01
          0                20           2             4    7     1      -0.5315354028E-03       4    7    1        -0.2774737645E-01      0.6796594345E-01
                                                   Max.-Head-Change                         Max.-Flux-Residual
  Residual-Control   Outer-Iter.   Inner-Iter.     Column Row Layer    Maximum-Head-Change  Column Row Layer    Maximum-Flux-Residual          L2-NORM 
          0                21           2             4    7     1      -0.4497491359E-03       4    7    1        -0.2347794418E-01      0.5750816264E-01
          0                22           2             4    7     1      -0.3806331315E-03       5    7    1        -0.1987062580E-01      0.4867198247E-01
          0                23           2             4    7     1      -0.3222333548E-03       4    7    1        -0.1682132836E-01      0.4120292793E-01
          0                24           2             4    7     1      -0.2728468440E-03       4    7    1        -0.1424323531E-01      0.3488817702E-01
          0                25           2             4    7     1      -0.2310722526E-03       4    7    1        -0.1206250541E-01      0.2954656065E-01
          0                26           2             4    7     1      -0.1957160958E-03       4    7    1        -0.1021683228E-01      0.2502566948E-01
          0                27           2             4    7     1      -0.1657833256E-03       4    7    1        -0.8654272538E-02      0.2119824989E-01
          0                28           2             4    7     1      -0.1404417418E-03       4    7    1        -0.7331383310E-02      0.1795789251E-01
          0                29           2             4    7     1      -0.1189890057E-03       4    7    1        -0.6211500935E-02      0.1521479125E-01
          0                30           1             4    7     1      -0.1008194088E-03       4    7    1        -0.5263005957E-02      0.1289149563E-01
          0                31           1             4    7     1      -0.8542718675E-04       4    7    1        -0.4459496476E-02      0.1092333548E-01

    ------------------------------------------------
       NWT REQUIRED           31 OUTER ITERATIONS 
       AND A TOTAL OF         60 INNER ITERATIONS.
    ------------------------------------------------

 NO OUTPUT CONTROL FOR STRESS PERIOD   44   TIME STEP   21
 
 SOLVING FOR HEAD 
                                                   Max.-Head-Change                         Max.-Flux-Residual
  Residual-Control   Outer-Iter.   Inner-Iter.     Column Row Layer    Maximum-Head-Change  Column Row Layer    Maximum-Flux-Residual          L2-NORM 
          0                 1           2             4    7     1      -0.1213848961E+00       4    7    1        -0.6393378135E+01      0.1352613930E+02
          0                 2           2             5    8     1      -0.8513796530E-02       5    8    1        -0.4675945848E+00      0.1122438893E+01
          0                 3           2             4    7     1      -0.1203415293E-01       4    7    1        -0.6288078859E+00      0.1497956918E+01
          0                 4           2             4    7     1      -0.8833469007E-02       5    8    1        -0.4640218206E+00      0.1133643446E+01
          0                 5           2             4    7     1      -0.7339386808E-02       4    7    1        -0.3831379330E+00      0.9380510902E+00
          0                 6           2             4    7     1      -0.6048004955E-02       5    6    1        -0.3157390814E+00      0.7733794957E+00
          0                 7           2             4    7     1      -0.5017729479E-02       4    7    1        -0.2619360182E+00      0.6415959335E+00
          0                 8           2             4    7     1      -0.4178377086E-02       4    7    1        -0.2181199864E+00      0.5342753438E+00
          0                 9           2             4    7     1      -0.3490362335E-02       4    7    1        -0.1822041816E+00      0.4463007713E+00
          0                10           2             4    7     1      -0.2922951275E-02       4    7    1        -0.1525841365E+00      0.3737481492E+00
                                                   Max.-Head-Change                         Max.-Flux-Residual
  Residual-Control   Outer-Iter.   Inner-Iter.     Column Row Layer    Maximum-Head-Change  Column Row Layer    Maximum-Flux-Residual          L2-NORM 
          0                11           2             4    7     1      -0.2452782311E-02       4    7    1        -0.1280403346E+00      0.3136292226E+00
          0                12           2             4    7     1      -0.2061657949E-02       4    7    1        -0.1076228004E+00      0.2636179370E+00
          0                13           2             4    7     1      -0.1735301558E-02       4    7    1        -0.9058634637E-01      0.2218870616E+00
          0                14           2             4    7     1      -0.1462262811E-02       4    7    1        -0.7633315261E-01      0.1869746000E+00
          0                15           2             4    7     1      -0.1233364335E-02       4    7    1        -0.6438417648E-01      0.1577061192E+00
          0                16           2             4    7     1      -0.1041101931E-02       4    7    1        -0.5434767947E-01      0.1331221775E+00
          0                17           2             4    7     1      -0.8793752028E-03       4    7    1        -0.4590520842E-01      0.1124427285E+00
          0                18           2             4    7     1      -0.7431856558E-03       4    7    1        -0.3879583140E-01      0.9502863251E-01
          0                19           2             4    7     1      -0.6283928520E-03       4    7    1        -0.3280340889E-01      0.8035046560E-01
          0                20           2             4    7     1      -0.5315378406E-03       4    7    1        -0.2774737643E-01      0.6796594340E-01
                                                   Max.-Head-Change                         Max.-Flux-Residual
  Residual-Control   Outer-Iter.   Inner-Iter.     Column Row Layer    Maximum-Head-Change  Column Row Layer    Maximum-Flux-Residual          L2-NORM 
          0                21           2             4    7     1      -0.4497511984E-03       4    7    1        -0.2347794415E-01      0.5750816260E-01
          0                22           2             4    7     1      -0.3806348772E-03       5    7    1        -0.1987062580E-01      0.4867198240E-01
          0                23           2             4    7     1      -0.3222348326E-03       4    7    1        -0.1682132834E-01      0.4120292787E-01
          0                24           2             4    7     1      -0.2728480955E-03       4    7    1        -0.1424323531E-01      0.3488817697E-01
          0                25           2             4    7     1      -0.2310733128E-03       4    7    1        -0.1206250540E-01      0.2954656062E-01
          0                26           2             4    7     1      -0.1957169925E-03       4    7    1        -0.1021683224E-01      0.2502566942E-01
          0                27           2             4    7     1      -0.1657840864E-03       4    7    1        -0.8654272550E-02      0.2119824987E-01
          0                28           2             4    7     1      -0.1404423857E-03       4    7    1        -0.7331383290E-02      0.1795789247E-01
          0                29           2             4    7     1      -0.1189895515E-03       4    7    1        -0.6211500926E-02      0.1521479122E-01
          0                30           1             4    7     1      -0.1008198714E-03       4    7    1        -0.5263005942E-02      0.1289149560E-01
          0                31           1             4    7     1      -0.8542757793E-04       4    7    1        -0.4459496444E-02      0.1092333544E-01

    ------------------------------------------------
       NWT REQUIRED           31 OUTER ITERATIONS 
       AND A TOTAL OF         60 INNER ITERATIONS.
    ------------------------------------------------

 NO OUTPUT CONTROL FOR STRESS PERIOD   44   TIME STEP   22
 
 SOLVING FOR HEAD 
                                                   Max.-Head-Change                         Max.-Flux-Residual
  Residual-Control   Outer-Iter.   Inner-Iter.     Column Row Layer    Maximum-Head-Change  Column Row Layer    Maximum-Flux-Residual          L2-NORM 
          0                 1           2             4    7     1      -0.1193149721E+00       4    7    1        -0.6285369382E+01      0.1336183513E+02
          0                 2           2             5    8     1      -0.8759126714E-02       5    8    1        -0.4809069803E+00      0.1153000885E+01
          0                 3           2             4    7     1      -0.1201353103E-01       4    7    1        -0.6277286468E+00      0.1495125562E+01
          0                 4           2             4    7     1      -0.8835575855E-02       5    8    1        -0.4641541642E+00      0.1133929566E+01
          0                 5           2             4    7     1      -0.7339212711E-02       4    7    1        -0.3831271561E+00      0.9380224155E+00
          0                 6           2             4    7     1      -0.6048052541E-02       5    6    1        -0.3157402907E+00      0.7733822357E+00
          0                 7           2             4    7     1      -0.5017749739E-02       4    7    1        -0.2619359103E+00      0.6415956467E+00
          0                 8           2             4    7     1      -0.4178395885E-02       4    7    1        -0.2181199971E+00      0.5342753720E+00
          0                 9           2             4    7     1      -0.3490377845E-02       4    7    1        -0.1822041804E+00      0.4463007681E+00
          0                10           2             4    7     1      -0.2922964283E-02       4    7    1        -0.1525841365E+00      0.3737478855E+00
                                                   Max.-Head-Change                         Max.-Flux-Residual
  Residual-Control   Outer-Iter.   Inner-Iter.     Column Row Layer    Maximum-Head-Change  Column Row Layer    Maximum-Flux-Residual          L2-NORM 
          0                11           2             4    7     1      -0.2452793224E-02       4    7    1        -0.1280403345E+00      0.3136289668E+00
          0                12           2             4    7     1      -0.2061667123E-02       4    7    1        -0.1076228003E+00      0.2636179324E+00
          0                13           2             4    7     1      -0.1735309280E-02       4    7    1        -0.9058634631E-01      0.2218870613E+00
          0                14           2             4    7     1      -0.1462269318E-02       4    7    1        -0.7633315257E-01      0.1869745998E+00
          0                15           2             4    7     1      -0.1233369823E-02       4    7    1        -0.6438417645E-01      0.1577061191E+00
          0                16           2             4    7     1      -0.1041106563E-02       4    7    1        -0.5434767943E-01      0.1331221774E+00
          0                17           2             4    7     1      -0.8793791161E-03       4    7    1        -0.4590520840E-01      0.1124427284E+00
          0                18           2             4    7     1      -0.7431889624E-03       4    7    1        -0.3879583136E-01      0.9502863240E-01
          0                19           2             4    7     1      -0.6283956480E-03       4    7    1        -0.3280340888E-01      0.8035046554E-01
          0                20           2             4    7     1      -0.5315402056E-03       4    7    1        -0.2774737642E-01      0.6796594335E-01
                                                   Max.-Head-Change                         Max.-Flux-Residual
  Residual-Control   Outer-Iter.   Inner-Iter.     Column Row Layer    Maximum-Head-Change  Column Row Layer    Maximum-Flux-Residual          L2-NORM 
          0                21           2             4    7     1      -0.4497531998E-03       4    7    1        -0.2347794415E-01      0.5750816253E-01
          0                22           2             4    7     1      -0.3806365708E-03       5    7    1        -0.1987062580E-01      0.4867198238E-01
          0                23           2             4    7     1      -0.3222362662E-03       4    7    1        -0.1682132833E-01      0.4120292784E-01
          0                24           2             4    7     1      -0.2728493098E-03       4    7    1        -0.1424323531E-01      0.3488817696E-01
          0                25           2             4    7     1      -0.2310743406E-03       4    7    1        -0.1206250539E-01      0.2954656061E-01
          0                26           2             4    7     1      -0.1957178636E-03       4    7    1        -0.1021683225E-01      0.2502566943E-01
          0                27           2             4    7     1      -0.1657848238E-03       4    7    1        -0.8654272545E-02      0.2119824984E-01
          0                28           2             4    7     1      -0.1404430110E-03       4    7    1        -0.7331383312E-02      0.1795789249E-01
          0                29           2             4    7     1      -0.1189900809E-03       4    7    1        -0.6211500927E-02      0.1521479122E-01
          0                30           1             4    7     1      -0.1008203201E-03       4    7    1        -0.5263005947E-02      0.1289149559E-01
          0                31           1             4    7     1      -0.8542795822E-04       4    7    1        -0.4459496447E-02      0.1092333547E-01

    ------------------------------------------------
       NWT REQUIRED           31 OUTER ITERATIONS 
       AND A TOTAL OF         60 INNER ITERATIONS.
    ------------------------------------------------

 NO OUTPUT CONTROL FOR STRESS PERIOD   44   TIME STEP   23
 
 SOLVING FOR HEAD 
                                                   Max.-Head-Change                         Max.-Flux-Residual
  Residual-Control   Outer-Iter.   Inner-Iter.     Column Row Layer    Maximum-Head-Change  Column Row Layer    Maximum-Flux-Residual          L2-NORM 
          0                 1           2             4    7     1      -0.1172553746E+00       4    7    1        -0.6177823612E+01      0.1320496896E+02
          0                 2           2             5    8     1      -0.8975278785E-02       5    8    1        -0.4925930955E+00      0.1182428479E+01
          0                 3           2             4    7     1      -0.1199298401E-01       4    7    1        -0.6266540165E+00      0.1492366355E+01
          0                 4           2             4    7     1      -0.8837675307E-02       5    8    1        -0.4642702934E+00      0.1134208230E+01
          0                 5           2             4    7     1      -0.7339039428E-02       4    7    1        -0.3831164248E+00      0.9379945872E+00
          0                 6           2             4    7     1      -0.6048100107E-02       5    6    1        -0.3157414543E+00      0.7733850168E+00
          0                 7           2             4    7     1      -0.5017770051E-02       4    7    1        -0.2619358029E+00      0.6415953682E+00
          0                 8           2             4    7     1      -0.4178414721E-02       4    7    1        -0.2181200078E+00      0.5342753995E+00
          0                 9           2             4    7     1      -0.3490393385E-02       4    7    1        -0.1822041793E+00      0.4463007651E+00
          0                10           2             4    7     1      -0.2922977318E-02       4    7    1        -0.1525841366E+00      0.3737478856E+00
                                                   Max.-Head-Change                         Max.-Flux-Residual
  Residual-Control   Outer-Iter.   Inner-Iter.     Column Row Layer    Maximum-Head-Change  Column Row Layer    Maximum-Flux-Residual          L2-NORM 
          0                11           2             4    7     1      -0.2452804160E-02       4    7    1        -0.1280403345E+00      0.3136289666E+00
          0                12           2             4    7     1      -0.2061676314E-02       4    7    1        -0.1076228003E+00      0.2636179322E+00
          0                13           2             4    7     1      -0.1735317017E-02       4    7    1        -0.9058634628E-01      0.2218870612E+00
          0                14           2             4    7     1      -0.1462275838E-02       4    7    1        -0.7633315255E-01      0.1869745997E+00
          0                15           2             4    7     1      -0.1233375322E-02       4    7    1        -0.6438417642E-01      0.1577061190E+00
          0                16           2             4    7     1      -0.1041111205E-02       4    7    1        -0.5434767940E-01      0.1331221773E+00
          0                17           2             4    7     1      -0.8793830368E-03       4    7    1        -0.4590520839E-01      0.1124427284E+00
          0                18           2             4    7     1      -0.7431922760E-03       4    7    1        -0.3879583135E-01      0.9502863235E-01
          0                19           2             4    7     1      -0.6283984501E-03       4    7    1        -0.3280340887E-01      0.8035046550E-01
          0                20           2             4    7     1      -0.5315425755E-03       4    7    1        -0.2774737639E-01      0.6796594329E-01
                                                   Max.-Head-Change                         Max.-Flux-Residual
  Residual-Control   Outer-Iter.   Inner-Iter.     Column Row Layer    Maximum-Head-Change  Column Row Layer    Maximum-Flux-Residual          L2-NORM 
          0                21           2             4    7     1      -0.4497552049E-03       4    7    1        -0.2347794413E-01      0.5750816251E-01
          0                22           2             4    7     1      -0.3806382675E-03       5    7    1        -0.1987062578E-01      0.4867198234E-01
          0                23           2             4    7     1      -0.3222377033E-03       4    7    1        -0.1682132834E-01      0.4120292781E-01
          0                24           2             4    7     1      -0.2728505257E-03       4    7    1        -0.1424323529E-01      0.3488817693E-01
          0                25           2             4    7     1      -0.2310753709E-03       4    7    1        -0.1206250540E-01      0.2954656058E-01
          0                26           2             4    7     1      -0.1957187366E-03       4    7    1        -0.1021683225E-01      0.2502566941E-01
          0                27           2             4    7     1      -0.1657855630E-03       4    7    1        -0.8654272531E-02      0.2119824982E-01
          0                28           2             4    7     1      -0.1404436369E-03       4    7    1        -0.7331383294E-02      0.1795789244E-01
          0                29           2             4    7     1      -0.1189906114E-03       4    7    1        -0.6211500929E-02      0.1521479120E-01
          0                30           1             4    7     1      -0.1008207695E-03       4    7    1        -0.5263005953E-02      0.1289149559E-01
          0                31           1             4    7     1      -0.8542833952E-04       4    7    1        -0.4459496462E-02      0.1092333543E-01

    ------------------------------------------------
       NWT REQUIRED           31 OUTER ITERATIONS 
       AND A TOTAL OF         60 INNER ITERATIONS.
    ------------------------------------------------

 NO OUTPUT CONTROL FOR STRESS PERIOD   44   TIME STEP   24
 
 SOLVING FOR HEAD 
                                                   Max.-Head-Change                         Max.-Flux-Residual
  Residual-Control   Outer-Iter.   Inner-Iter.     Column Row Layer    Maximum-Head-Change  Column Row Layer    Maximum-Flux-Residual          L2-NORM 
          0                 1           2             4    7     1      -0.1152076555E+00       4    7    1        -0.6070813945E+01      0.1305513683E+02
          0                 2           2             5    8     1      -0.9183154107E-02       5    8    1        -0.5038237284E+00      0.1211152704E+01
          0                 3           2             4    7     1      -0.1197255620E-01       4    7    1        -0.6255847268E+00      0.1489678666E+01
          0                 4           2             4    7     1      -0.8839762881E-02       5    8    1        -0.4643819143E+00      0.1134479706E+01
          0                 5           2             4    7     1      -0.7338867369E-02       4    7    1        -0.3831057465E+00      0.9379674778E+00
          0                 6           2             4    7     1      -0.6048147581E-02       5    6    1        -0.3157425747E+00      0.7733877276E+00
          0                 7           2             4    7     1      -0.5017790397E-02       4    7    1        -0.2619356961E+00      0.6415950982E+00
          0                 8           2             4    7     1      -0.4178433574E-02       4    7    1        -0.2181200184E+00      0.5342754274E+00
          0                 9           2             4    7     1      -0.3490408944E-02       4    7    1        -0.1822041782E+00      0.4463007627E+00
          0                10           2             4    7     1      -0.2922990365E-02       4    7    1        -0.1525841366E+00      0.3737478869E+00
                                                   Max.-Head-Change                         Max.-Flux-Residual
  Residual-Control   Outer-Iter.   Inner-Iter.     Column Row Layer    Maximum-Head-Change  Column Row Layer    Maximum-Flux-Residual          L2-NORM 
          0                11           2             4    7     1      -0.2452815107E-02       4    7    1        -0.1280403344E+00      0.3136289675E+00
          0                12           2             4    7     1      -0.2061685515E-02       4    7    1        -0.1076228002E+00      0.2636179324E+00
          0                13           2             4    7     1      -0.1735324761E-02       4    7    1        -0.9058634625E-01      0.2218870625E+00
          0                14           2             4    7     1      -0.1462282364E-02       4    7    1        -0.7633315253E-01      0.1869746009E+00
          0                15           2             4    7     1      -0.1233380827E-02       4    7    1        -0.6438417639E-01      0.1577061191E+00
          0                16           2             4    7     1      -0.1041115851E-02       4    7    1        -0.5434767938E-01      0.1331221794E+00
          0                17           2             4    7     1      -0.8793869617E-03       4    7    1        -0.4590520837E-01      0.1124427300E+00
          0                18           2             4    7     1      -0.7431955923E-03       4    7    1        -0.3879583133E-01      0.9502863251E-01
          0                19           2             4    7     1      -0.6284012550E-03       4    7    1        -0.3280340887E-01      0.8035046570E-01
          0                20           2             4    7     1      -0.5315449474E-03       4    7    1        -0.2774737638E-01      0.6796594747E-01
                                                   Max.-Head-Change                         Max.-Flux-Residual
  Residual-Control   Outer-Iter.   Inner-Iter.     Column Row Layer    Maximum-Head-Change  Column Row Layer    Maximum-Flux-Residual          L2-NORM 
          0                21           2             4    7     1      -0.4497572127E-03       4    7    1        -0.2347794414E-01      0.5750816529E-01
          0                22           2             4    7     1      -0.3806399660E-03       5    7    1        -0.1987062578E-01      0.4867198266E-01
          0                23           2             4    7     1      -0.3222391414E-03       4    7    1        -0.1682132832E-01      0.4120292789E-01
          0                24           2             4    7     1      -0.2728517437E-03       4    7    1        -0.1424323529E-01      0.3488818453E-01
          0                25           2             4    7     1      -0.2310764022E-03       4    7    1        -0.1206250539E-01      0.2954656541E-01
          0                26           2             4    7     1      -0.1957196098E-03       4    7    1        -0.1021683225E-01      0.2502566989E-01
          0                27           2             4    7     1      -0.1657863030E-03       4    7    1        -0.8654272540E-02      0.2119824995E-01
          0                28           2             4    7     1      -0.1404442639E-03       4    7    1        -0.7331383296E-02      0.1795790713E-01
          0                29           2             4    7     1      -0.1189911426E-03       4    7    1        -0.6211500914E-02      0.1521479973E-01
          0                30           1             4    7     1      -0.1008212192E-03       4    7    1        -0.5263005925E-02      0.1289149671E-01
          0                31           1             4    7     1      -0.8542872056E-04       4    7    1        -0.4459496443E-02      0.1092333579E-01

    ------------------------------------------------
       NWT REQUIRED           31 OUTER ITERATIONS 
       AND A TOTAL OF         60 INNER ITERATIONS.
    ------------------------------------------------

 NO OUTPUT CONTROL FOR STRESS PERIOD   44   TIME STEP   25
 
 SOLVING FOR HEAD 
                                                   Max.-Head-Change                         Max.-Flux-Residual
  Residual-Control   Outer-Iter.   Inner-Iter.     Column Row Layer    Maximum-Head-Change  Column Row Layer    Maximum-Flux-Residual          L2-NORM 
          0                 1           2             4    7     1      -0.1131734709E+00       4    7    1        -0.5964434719E+01      0.1291180140E+02
          0                 2           2             5    8     1      -0.9382956117E-02       5    8    1        -0.5146248879E+00      0.1238353797E+01
          0                 3           2             4    7     1      -0.1195047597E-01       4    7    1        -0.6243861723E+00      0.1487055196E+01
          0                 4           2             4    7     1      -0.8842202916E-02       5    8    1        -0.4644892902E+00      0.1134744359E+01
          0                 5           2             4    7     1      -0.7338813451E-02       4    7    1        -0.3830937753E+00      0.9379410420E+00
          0                 6           2             4    7     1      -0.6048309751E-02       5    6    1        -0.3157436541E+00      0.7733903696E+00
          0                 7           2             4    7     1      -0.5017904156E-02       4    7    1        -0.2619355763E+00      0.6415948335E+00
          0                 8           2             4    7     1      -0.4178530389E-02       4    7    1        -0.2181200302E+00      0.5342754533E+00
          0                 9           2             4    7     1      -0.3490489608E-02       4    7    1        -0.1822041769E+00      0.4463007600E+00
          0                10           2             4    7     1      -0.2923057937E-02       4    7    1        -0.1525841367E+00      0.3737478863E+00
                                                   Max.-Head-Change                         Max.-Flux-Residual
  Residual-Control   Outer-Iter.   Inner-Iter.     Column Row Layer    Maximum-Head-Change  Column Row Layer    Maximum-Flux-Residual          L2-NORM 
          0                11           2             4    7     1      -0.2452871808E-02       4    7    1        -0.1280403344E+00      0.3136289667E+00
          0                12           2             4    7     1      -0.2061733176E-02       4    7    1        -0.1076228002E+00      0.2636179324E+00
          0                13           2             4    7     1      -0.1735364876E-02       4    7    1        -0.9058634622E-01      0.2218870613E+00
          0                14           2             4    7     1      -0.1462316167E-02       4    7    1        -0.7633315249E-01      0.1869746000E+00
          0                15           2             4    7     1      -0.1233409339E-02       4    7    1        -0.6438417638E-01      0.1577061193E+00
          0                16           2             4    7     1      -0.1041139919E-02       4    7    1        -0.5434767937E-01      0.1331221776E+00
          0                17           2             4    7     1      -0.8794072896E-03       4    7    1        -0.4590520834E-01      0.1124427286E+00
          0                18           2             4    7     1      -0.7432127733E-03       4    7    1        -0.3879583133E-01      0.9502863250E-01
          0                19           2             4    7     1      -0.6284157807E-03       4    7    1        -0.3280340884E-01      0.8035046555E-01
          0                20           2             4    7     1      -0.5315572353E-03       4    7    1        -0.2774737639E-01      0.6796594388E-01
                                                   Max.-Head-Change                         Max.-Flux-Residual
  Residual-Control   Outer-Iter.   Inner-Iter.     Column Row Layer    Maximum-Head-Change  Column Row Layer    Maximum-Flux-Residual          L2-NORM 
          0                21           2             4    7     1      -0.4497676092E-03       4    7    1        -0.2347794413E-01      0.5750816288E-01
          0                22           2             4    7     1      -0.3806487657E-03       5    7    1        -0.1987062579E-01      0.4867198256E-01
          0                23           2             4    7     1      -0.3222465905E-03       4    7    1        -0.1682132832E-01      0.4120292789E-01
          0                24           2             4    7     1      -0.2728580512E-03       4    7    1        -0.1424323528E-01      0.3488817800E-01
          0                25           2             4    7     1      -0.2310817440E-03       4    7    1        -0.1206250538E-01      0.2954656119E-01
          0                26           2             4    7     1      -0.1957241343E-03       4    7    1        -0.1021683224E-01      0.2502566946E-01
          0                27           2             4    7     1      -0.1657901351E-03       4    7    1        -0.8654272522E-02      0.2119824984E-01
          0                28           2             4    7     1      -0.1404475103E-03       4    7    1        -0.7331383292E-02      0.1795789407E-01
          0                29           2             4    7     1      -0.1189938933E-03       4    7    1        -0.6211500920E-02      0.1521479234E-01
          0                30           1             4    7     1      -0.1008235499E-03       4    7    1        -0.5263005930E-02      0.1289149580E-01
          0                31           1             4    7     1      -0.8543069519E-04       4    7    1        -0.4459496442E-02      0.1092333544E-01

    ------------------------------------------------
       NWT REQUIRED           31 OUTER ITERATIONS 
       AND A TOTAL OF         60 INNER ITERATIONS.
    ------------------------------------------------

 NO OUTPUT CONTROL FOR STRESS PERIOD   44   TIME STEP   26
 
 SOLVING FOR HEAD 
                                                   Max.-Head-Change                         Max.-Flux-Residual
  Residual-Control   Outer-Iter.   Inner-Iter.     Column Row Layer    Maximum-Head-Change  Column Row Layer    Maximum-Flux-Residual          L2-NORM 
          0                 1           2             4    7     1      -0.1112214866E+00       4    7    1        -0.5859873504E+01      0.1277487406E+02
          0                 2           2             5    8     1      -0.9576076990E-02       5    8    1        -0.5250216411E+00      0.1265278392E+01
          0                 3           2             4    7     1      -0.1193299617E-01       4    7    1        -0.6234770195E+00      0.1484500995E+01
          0                 4           2             4    7     1      -0.8843995628E-02       5    8    1        -0.4645926628E+00      0.1135002375E+01
          0                 5           2             4    7     1      -0.7338670825E-02       4    7    1        -0.3830846975E+00      0.9379152734E+00
          0                 6           2             4    7     1      -0.6048354237E-02       5    6    1        -0.3157446948E+00      0.7733929453E+00
          0                 7           2             4    7     1      -0.5017924764E-02       4    7    1        -0.2619354854E+00      0.6415945758E+00
          0                 8           2             4    7     1      -0.4178549185E-02       4    7    1        -0.2181200393E+00      0.5342754790E+00
          0                 9           2             4    7     1      -0.3490505145E-02       4    7    1        -0.1822041759E+00      0.4463007573E+00
          0                10           2             4    7     1      -0.2923070965E-02       4    7    1        -0.1525841367E+00      0.3737478865E+00
                                                   Max.-Head-Change                         Max.-Flux-Residual
  Residual-Control   Outer-Iter.   Inner-Iter.     Column Row Layer    Maximum-Head-Change  Column Row Layer    Maximum-Flux-Residual          L2-NORM 
          0                11           2             4    7     1      -0.2452882738E-02       4    7    1        -0.1280403343E+00      0.3136289667E+00
          0                12           2             4    7     1      -0.2061742363E-02       4    7    1        -0.1076228002E+00      0.2636179324E+00
          0                13           2             4    7     1      -0.1735372610E-02       4    7    1        -0.9058634619E-01      0.2218870613E+00
          0                14           2             4    7     1      -0.1462322684E-02       4    7    1        -0.7633315247E-01      0.1869745998E+00
          0                15           2             4    7     1      -0.1233414835E-02       4    7    1        -0.6438417636E-01      0.1577061190E+00
          0                16           2             4    7     1      -0.1041144559E-02       4    7    1        -0.5434767936E-01      0.1331221774E+00
          0                17           2             4    7     1      -0.8794112088E-03       4    7    1        -0.4590520834E-01      0.1124427284E+00
          0                18           2             4    7     1      -0.7432160852E-03       4    7    1        -0.3879583132E-01      0.9502863239E-01
          0                19           2             4    7     1      -0.6284185816E-03       4    7    1        -0.3280340884E-01      0.8035046553E-01
          0                20           2             4    7     1      -0.5315596043E-03       4    7    1        -0.2774737637E-01      0.6796594333E-01
                                                   Max.-Head-Change                         Max.-Flux-Residual
  Residual-Control   Outer-Iter.   Inner-Iter.     Column Row Layer    Maximum-Head-Change  Column Row Layer    Maximum-Flux-Residual          L2-NORM 
          0                21           2             4    7     1      -0.4497696137E-03       4    7    1        -0.2347794412E-01      0.5750816252E-01
          0                22           2             4    7     1      -0.3806504612E-03       5    7    1        -0.1987062579E-01      0.4867198235E-01
          0                23           2             4    7     1      -0.3222480268E-03       4    7    1        -0.1682132833E-01      0.4120292786E-01
          0                24           2             4    7     1      -0.2728592671E-03       4    7    1        -0.1424323528E-01      0.3488817694E-01
          0                25           2             4    7     1      -0.2310827736E-03       4    7    1        -0.1206250537E-01      0.2954656059E-01
          0                26           2             4    7     1      -0.1957250066E-03       4    7    1        -0.1021683225E-01      0.2502567009E-01
          0                27           2             4    7     1      -0.1657908741E-03       4    7    1        -0.8654272526E-02      0.2119825049E-01
          0                28           2             4    7     1      -0.1404481362E-03       4    7    1        -0.7331383294E-02      0.1795789254E-01
          0                29           2             4    7     1      -0.1189944237E-03       4    7    1        -0.6211500925E-02      0.1521479126E-01
          0                30           1             4    7     1      -0.1008239988E-03       4    7    1        -0.5263005931E-02      0.1289149692E-01
          0                31           1             4    7     1      -0.8543107648E-04       4    7    1        -0.4459496468E-02      0.1092333655E-01

    ------------------------------------------------
       NWT REQUIRED           31 OUTER ITERATIONS 
       AND A TOTAL OF         60 INNER ITERATIONS.
    ------------------------------------------------

 NO OUTPUT CONTROL FOR STRESS PERIOD   44   TIME STEP   27
 
 SOLVING FOR HEAD 
                                                   Max.-Head-Change                         Max.-Flux-Residual
  Residual-Control   Outer-Iter.   Inner-Iter.     Column Row Layer    Maximum-Head-Change  Column Row Layer    Maximum-Flux-Residual          L2-NORM 
          0                 1           2             4    7     1      -0.1092627435E+00       4    7    1        -0.5757433611E+01      0.1264413260E+02
          0                 2           2             5    8     1      -0.9761993071E-02       5    8    1        -0.5350399491E+00      0.1291246248E+01
          0                 3           2             4    7     1      -0.1191345772E-01       4    7    1        -0.6224533633E+00      0.1482008527E+01
          0                 4           2             4    7     1      -0.8845994210E-02       5    8    1        -0.4646922910E+00      0.1135253977E+01
          0                 5           2             4    7     1      -0.7338507619E-02       4    7    1        -0.3830744744E+00      0.9378901422E+00
          0                 6           2             4    7     1      -0.6048400788E-02       5    6    1        -0.3157456987E+00      0.7733954575E+00
          0                 7           2             4    7     1      -0.5017945172E-02       4    7    1        -0.2619353832E+00      0.6415943247E+00
          0                 8           2             4    7     1      -0.4178568006E-02       4    7    1        -0.2181200494E+00      0.5342755041E+00
          0                 9           2             4    7     1      -0.3490520684E-02       4    7    1        -0.1822041749E+00      0.4463007548E+00
          0                10           2             4    7     1      -0.2923083996E-02       4    7    1        -0.1525841368E+00      0.3737478868E+00
                                                   Max.-Head-Change                         Max.-Flux-Residual
  Residual-Control   Outer-Iter.   Inner-Iter.     Column Row Layer    Maximum-Head-Change  Column Row Layer    Maximum-Flux-Residual          L2-NORM 
          0                11           2             4    7     1      -0.2452893671E-02       4    7    1        -0.1280403343E+00      0.3136289667E+00
          0                12           2             4    7     1      -0.2061751553E-02       4    7    1        -0.1076228002E+00      0.2636179324E+00
          0                13           2             4    7     1      -0.1735380345E-02       4    7    1        -0.9058634617E-01      0.2218870613E+00
          0                14           2             4    7     1      -0.1462329202E-02       4    7    1        -0.7633315245E-01      0.1869745998E+00
          0                15           2             4    7     1      -0.1233420333E-02       4    7    1        -0.6438417634E-01      0.1577061190E+00
          0                16           2             4    7     1      -0.1041149199E-02       4    7    1        -0.5434767932E-01      0.1331221774E+00
          0                17           2             4    7     1      -0.8794151287E-03       4    7    1        -0.4590520832E-01      0.1124427284E+00
          0                18           2             4    7     1      -0.7432193979E-03       4    7    1        -0.3879583130E-01      0.9502863239E-01
          0                19           2             4    7     1      -0.6284213825E-03       4    7    1        -0.3280340882E-01      0.8035046554E-01
          0                20           2             4    7     1      -0.5315619734E-03       4    7    1        -0.2774737637E-01      0.6796594332E-01
                                                   Max.-Head-Change                         Max.-Flux-Residual
  Residual-Control   Outer-Iter.   Inner-Iter.     Column Row Layer    Maximum-Head-Change  Column Row Layer    Maximum-Flux-Residual          L2-NORM 
          0                21           2             4    7     1      -0.4497716185E-03       4    7    1        -0.2347794412E-01      0.5750816252E-01
          0                22           2             4    7     1      -0.3806521583E-03       5    7    1        -0.1987062579E-01      0.4867198236E-01
          0                23           2             4    7     1      -0.3222494627E-03       4    7    1        -0.1682132831E-01      0.4120292783E-01
          0                24           2             4    7     1      -0.2728604838E-03       4    7    1        -0.1424323528E-01      0.3488817695E-01
          0                25           2             4    7     1      -0.2310838037E-03       4    7    1        -0.1206250536E-01      0.2954656058E-01
          0                26           2             4    7     1      -0.1957258787E-03       4    7    1        -0.1021683223E-01      0.2502566940E-01
          0                27           2             4    7     1      -0.1657916130E-03       4    7    1        -0.8654272522E-02      0.2119824984E-01
          0                28           2             4    7     1      -0.1404487623E-03       4    7    1        -0.7331383293E-02      0.1795789245E-01
          0                29           2             4    7     1      -0.1189949538E-03       4    7    1        -0.6211500919E-02      0.1521479123E-01
          0                30           1             4    7     1      -0.1008244488E-03       4    7    1        -0.5263005944E-02      0.1289149558E-01
          0                31           1             4    7     1      -0.8543145690E-04       4    7    1        -0.4459496452E-02      0.1092333543E-01

    ------------------------------------------------
       NWT REQUIRED           31 OUTER ITERATIONS 
       AND A TOTAL OF         60 INNER ITERATIONS.
    ------------------------------------------------

 NO OUTPUT CONTROL FOR STRESS PERIOD   44   TIME STEP   28
 
 SOLVING FOR HEAD 
                                                   Max.-Head-Change                         Max.-Flux-Residual
  Residual-Control   Outer-Iter.   Inner-Iter.     Column Row Layer    Maximum-Head-Change  Column Row Layer    Maximum-Flux-Residual          L2-NORM 
          0                 1           2             4    7     1      -0.1073183036E+00       4    7    1        -0.5655675927E+01      0.1251911335E+02
          0                 2           2             5    8     1      -0.9941362141E-02       5    8    1        -0.5446987795E+00      0.1316443890E+01
          0                 3           2             4    7     1      -0.1189406229E-01       4    7    1        -0.6214365094E+00      0.1479576741E+01
          0                 4           2             4    7     1      -0.8847978468E-02       5    8    1        -0.4647883618E+00      0.1135499413E+01
          0                 5           2             4    7     1      -0.7338345829E-02       4    7    1        -0.3830643189E+00      0.9378656255E+00
          0                 6           2             4    7     1      -0.6048447183E-02       5    6    1        -0.3157466678E+00      0.7733979084E+00
          0                 7           2             4    7     1      -0.5017965583E-02       4    7    1        -0.2619352816E+00      0.6415940797E+00
          0                 8           2             4    7     1      -0.4178586817E-02       4    7    1        -0.2181200595E+00      0.5342755286E+00
          0                 9           2             4    7     1      -0.3490536215E-02       4    7    1        -0.1822041738E+00      0.4463007524E+00
          0                10           2             4    7     1      -0.2923097021E-02       4    7    1        -0.1525841369E+00      0.3737478871E+00
                                                   Max.-Head-Change                         Max.-Flux-Residual
  Residual-Control   Outer-Iter.   Inner-Iter.     Column Row Layer    Maximum-Head-Change  Column Row Layer    Maximum-Flux-Residual          L2-NORM 
          0                11           2             4    7     1      -0.2452904600E-02       4    7    1        -0.1280403342E+00      0.3136289667E+00
          0                12           2             4    7     1      -0.2061760738E-02       4    7    1        -0.1076228001E+00      0.2636179324E+00
          0                13           2             4    7     1      -0.1735388077E-02       4    7    1        -0.9058634616E-01      0.2218870613E+00
          0                14           2             4    7     1      -0.1462335716E-02       4    7    1        -0.7633315242E-01      0.1869745998E+00
          0                15           2             4    7     1      -0.1233425828E-02       4    7    1        -0.6438417633E-01      0.1577061191E+00
          0                16           2             4    7     1      -0.1041153838E-02       4    7    1        -0.5434767931E-01      0.1331221774E+00
          0                17           2             4    7     1      -0.8794190463E-03       4    7    1        -0.4590520830E-01      0.1124427284E+00
          0                18           2             4    7     1      -0.7432227092E-03       4    7    1        -0.3879583130E-01      0.9502863242E-01
          0                19           2             4    7     1      -0.6284241821E-03       4    7    1        -0.3280340881E-01      0.8035046554E-01
          0                20           2             4    7     1      -0.5315643419E-03       4    7    1        -0.2774737636E-01      0.6796594334E-01
                                                   Max.-Head-Change                         Max.-Flux-Residual
  Residual-Control   Outer-Iter.   Inner-Iter.     Column Row Layer    Maximum-Head-Change  Column Row Layer    Maximum-Flux-Residual          L2-NORM 
          0                21           2             4    7     1      -0.4497736222E-03       4    7    1        -0.2347794410E-01      0.5750816253E-01
          0                22           2             4    7     1      -0.3806538536E-03       5    7    1        -0.1987062580E-01      0.4867198237E-01
          0                23           2             4    7     1      -0.3222508988E-03       4    7    1        -0.1682132833E-01      0.4120292784E-01
          0                24           2             4    7     1      -0.2728616989E-03       4    7    1        -0.1424323527E-01      0.3488817697E-01
          0                25           2             4    7     1      -0.2310848333E-03       4    7    1        -0.1206250538E-01      0.2954656060E-01
          0                26           2             4    7     1      -0.1957267510E-03       4    7    1        -0.1021683224E-01      0.2502566943E-01
          0                27           2             4    7     1      -0.1657923516E-03       4    7    1        -0.8654272518E-02      0.2119824984E-01
          0                28           2             4    7     1      -0.1404493879E-03       4    7    1        -0.7331383291E-02      0.1795789244E-01
          0                29           2             4    7     1      -0.1189954845E-03       4    7    1        -0.6211500925E-02      0.1521479122E-01
          0                30           1             4    7     1      -0.1008248973E-03       4    7    1        -0.5263005917E-02      0.1289149559E-01
          0                31           1             4    7     1      -0.8543183757E-04       4    7    1        -0.4459496457E-02      0.1092333543E-01

    ------------------------------------------------
       NWT REQUIRED           31 OUTER ITERATIONS 
       AND A TOTAL OF         60 INNER ITERATIONS.
    ------------------------------------------------

 NO OUTPUT CONTROL FOR STRESS PERIOD   44   TIME STEP   29
 
 SOLVING FOR HEAD 
                                                   Max.-Head-Change                         Max.-Flux-Residual
  Residual-Control   Outer-Iter.   Inner-Iter.     Column Row Layer    Maximum-Head-Change  Column Row Layer    Maximum-Flux-Residual          L2-NORM 
          0                 1           2             4    7     1      -0.1053890725E+00       4    7    1        -0.5554652908E+01      0.1239952936E+02
          0                 2           2             5    8     1      -0.1011454491E-01       5    8    1        -0.5540181017E+00      0.1340904926E+01
          0                 3           2             4    7     1      -0.1187481892E-01       4    7    1        -0.6204269824E+00      0.1477203467E+01
          0                 4           2             4    7     1      -0.8849947475E-02       5    8    1        -0.4648810730E+00      0.1135738904E+01
          0                 5           2             4    7     1      -0.7338185525E-02       4    7    1        -0.3830542362E+00      0.9378417015E+00
          0                 6           2             4    7     1      -0.6048493398E-02       5    6    1        -0.3157476038E+00      0.7734003001E+00
          0                 7           2             4    7     1      -0.5017985985E-02       4    7    1        -0.2619351807E+00      0.6415938407E+00
          0                 8           2             4    7     1      -0.4178605607E-02       4    7    1        -0.2181200696E+00      0.5342755527E+00
          0                 9           2             4    7     1      -0.3490551730E-02       4    7    1        -0.1822041727E+00      0.4463007502E+00
          0                10           2             4    7     1      -0.2923110032E-02       4    7    1        -0.1525841369E+00      0.3737478874E+00
                                                   Max.-Head-Change                         Max.-Flux-Residual
  Residual-Control   Outer-Iter.   Inner-Iter.     Column Row Layer    Maximum-Head-Change  Column Row Layer    Maximum-Flux-Residual          L2-NORM 
          0                11           2             4    7     1      -0.2452915516E-02       4    7    1        -0.1280403342E+00      0.3136289667E+00
          0                12           2             4    7     1      -0.2061769914E-02       4    7    1        -0.1076228001E+00      0.2636179325E+00
          0                13           2             4    7     1      -0.1735395800E-02       4    7    1        -0.9058634614E-01      0.2218870614E+00
          0                14           2             4    7     1      -0.1462342225E-02       4    7    1        -0.7633315242E-01      0.1869745999E+00
          0                15           2             4    7     1      -0.1233431317E-02       4    7    1        -0.6438417631E-01      0.1577061191E+00
          0                16           2             4    7     1      -0.1041158471E-02       4    7    1        -0.5434767931E-01      0.1331221774E+00
          0                17           2             4    7     1      -0.8794229604E-03       4    7    1        -0.4590520829E-01      0.1124427285E+00
          0                18           2             4    7     1      -0.7432260166E-03       4    7    1        -0.3879583128E-01      0.9502863246E-01
          0                19           2             4    7     1      -0.6284269793E-03       4    7    1        -0.3280340881E-01      0.8035046557E-01
          0                20           2             4    7     1      -0.5315667073E-03       4    7    1        -0.2774737634E-01      0.6796594334E-01
                                                   Max.-Head-Change                         Max.-Flux-Residual
  Residual-Control   Outer-Iter.   Inner-Iter.     Column Row Layer    Maximum-Head-Change  Column Row Layer    Maximum-Flux-Residual          L2-NORM 
          0                21           2             4    7     1      -0.4497756239E-03       4    7    1        -0.2347794410E-01      0.5750816255E-01
          0                22           2             4    7     1      -0.3806555478E-03       5    7    1        -0.1987062581E-01      0.4867198241E-01
          0                23           2             4    7     1      -0.3222523328E-03       4    7    1        -0.1682132831E-01      0.4120292788E-01
          0                24           2             4    7     1      -0.2728629136E-03       4    7    1        -0.1424323527E-01      0.3488817697E-01
          0                25           2             4    7     1      -0.2310858615E-03       4    7    1        -0.1206250536E-01      0.2954656066E-01
          0                26           2             4    7     1      -0.1957276218E-03       4    7    1        -0.1021683223E-01      0.2502566947E-01
          0                27           2             4    7     1      -0.1657930898E-03       4    7    1        -0.8654272533E-02      0.2119824990E-01
          0                28           2             4    7     1      -0.1404500129E-03       4    7    1        -0.7331383286E-02      0.1795789253E-01
          0                29           2             4    7     1      -0.1189960139E-03       4    7    1        -0.6211500919E-02      0.1521479122E-01
          0                30           1             4    7     1      -0.1008253467E-03       4    7    1        -0.5263005927E-02      0.1289149559E-01
          0                31           1             4    7     1      -0.8543221749E-04       4    7    1        -0.4459496437E-02      0.1092333543E-01

    ------------------------------------------------
       NWT REQUIRED           31 OUTER ITERATIONS 
       AND A TOTAL OF         60 INNER ITERATIONS.
    ------------------------------------------------

 NO OUTPUT CONTROL FOR STRESS PERIOD   44   TIME STEP   30



 STREAM LISTING     PERIOD     44   STEP       30

 LAYER ROW COL. STREAM  RCH.  FLOW INTO     FLOW TO   FLOW OUT OF   OVRLND.     DIRECT     STREAM       STREAM     STREAM     STREAM   STREAMBED  STREAMBED
                SEG.NO.  NO.  STRM. RCH.    AQUIFER    STRM. RCH.    RUNOFF     PRECIP       ET          HEAD       DEPTH      WIDTH   CONDCTNC.   GRADIENT

   1    1    1     1     1    1.9000E+01  2.1427E-01   1.8786E+01  0.000E+00  0.000E+00  0.000E+00  1.09413E+03  1.082E+00  1.166E+01  5.249E-02  1.361E+00
   1    2    2     1     2    1.8786E+01  3.3054E-01   1.8455E+01  0.000E+00  0.000E+00  0.000E+00  1.08914E+03  1.077E+00  1.158E+01  8.107E-02  1.359E+00
   1    3    3     1     3    1.8455E+01  2.8064E-01   1.8175E+01  0.000E+00  0.000E+00  0.000E+00  1.08349E+03  1.072E+00  1.149E+01  6.892E-02  1.357E+00
   1    3    4     1     4    1.8175E+01  2.5740E-01   1.7917E+01  0.000E+00  0.000E+00  0.000E+00  1.07848E+03  1.068E+00  1.140E+01  6.328E-02  1.356E+00
   1    4    5     2     1    1.5917E+01  3.0542E-01   1.5612E+01  0.000E+00  0.000E+00  0.000E+00  1.07285E+03  9.157E-01  1.200E+01  7.800E-02  1.305E+00
   1    5    6     2     2    1.5612E+01  2.3438E-01   1.5377E+01  0.000E+00  0.000E+00  0.000E+00  1.06742E+03  9.063E-01  1.200E+01  6.000E-02  1.302E+00
   1    6    6     2     3    1.5377E+01  2.3388E-01   1.5143E+01  0.000E+00  0.000E+00  0.000E+00  1.06269E+03  8.980E-01  1.200E+01  6.000E-02  1.299E+00
   1    7    6     2     4    1.5143E+01  2.3338E-01   1.4910E+01  0.000E+00  0.000E+00  0.000E+00  1.05797E+03  8.897E-01  1.200E+01  6.000E-02  1.297E+00
   1    8    6     2     5    1.4910E+01  2.3289E-01   1.4677E+01  0.000E+00  0.000E+00  0.000E+00  1.05324E+03  8.814E-01  1.200E+01  6.000E-02  1.294E+00
   1    3    5     3     1    2.0000E+00  2.8252E-01   1.7175E+00  0.000E+00  0.000E+00  0.000E+00  1.07555E+03  1.909E+00  9.636E+00  7.227E-02  1.955E+00
   1    3    6     3     2    1.7175E+00  2.4905E-01   1.4684E+00  0.000E+00  0.000E+00  0.000E+00  1.07264E+03  1.727E+00  8.909E+00  6.682E-02  1.864E+00
   1    3    7     3     3    1.4684E+00  1.9718E-01   1.2712E+00  0.000E+00  0.000E+00  0.000E+00  1.06987E+03  1.555E+00  8.218E+00  5.547E-02  1.777E+00
   1    4    8     3     4    1.2712E+00  2.2567E-01   1.0456E+00  0.000E+00  0.000E+00  0.000E+00  1.06682E+03  1.364E+00  7.455E+00  6.709E-02  1.682E+00
   1    5    8     3     5    1.0456E+00  1.5790E-01   8.8768E-01  0.000E+00  0.000E+00  0.000E+00  1.06362E+03  1.164E+00  6.655E+00  4.991E-02  1.582E+00
   1    6    8     3     6    8.8768E-01  5.5980E-02   8.3170E-01  0.000E+00  0.000E+00  0.000E+00  1.06158E+03  1.036E+00  6.145E+00  1.844E-02  1.518E+00
   1    5   10     4     1    1.0000E+01  9.0919E-02   9.9091E+00  0.000E+00  0.000E+00  0.000E+00  1.07836E+03  6.368E-01  1.000E+01  2.500E-02  1.212E+00
   1    5    9     4     2    9.9091E+00  1.8158E-01   9.7275E+00  0.000E+00  0.000E+00  0.000E+00  1.07154E+03  6.315E-01  1.000E+01  5.000E-02  1.211E+00
   1    6    8     4     3    9.7275E+00  1.2689E-01   9.6006E+00  0.000E+00  0.000E+00  0.000E+00  1.06381E+03  6.256E-01  1.000E+01  3.500E-02  1.209E+00
   1    6    8     5     1    1.0432E+01  2.2686E-01   1.0205E+01  0.000E+00  0.000E+00  0.000E+00  1.05868E+03  6.790E-01  1.542E+01  6.166E-02  1.226E+00
   1    7    7     5     2    1.0205E+01  2.7894E-01   9.9265E+00  0.000E+00  0.000E+00  0.000E+00  1.05417E+03  6.732E-01  1.519E+01  7.594E-02  1.224E+00
   1    8    7     5     3    9.9265E+00  1.9221E-01   9.7343E+00  0.000E+00  0.000E+00  0.000E+00  1.04992E+03  6.676E-01  1.497E+01  5.241E-02  1.223E+00
   1    8    6     5     4    9.7343E+00  1.3577E-01   9.5985E+00  0.000E+00  0.000E+00  0.000E+00  1.04691E+03  6.637E-01  1.482E+01  3.706E-02  1.221E+00
   1    9    6     6     1    2.4276E+01  2.5176E-01   2.4024E+01  0.000E+00  0.000E+00  0.000E+00  1.04392E+03  1.196E+00  1.200E+01  6.000E-02  1.399E+00
   1   10    7     6     2    2.4024E+01  2.5131E-01   2.3773E+01  0.000E+00  0.000E+00  0.000E+00  1.03937E+03  1.188E+00  1.200E+01  6.000E-02  1.396E+00
   1   11    7     6     3    2.3773E+01  2.5086E-01   2.3522E+01  0.000E+00  0.000E+00  0.000E+00  1.03482E+03  1.181E+00  1.200E+01  6.000E-02  1.394E+00
   1   12    7     6     4    2.3522E+01  2.5041E-01   2.3271E+01  0.000E+00  0.000E+00  0.000E+00  1.03026E+03  1.173E+00  1.200E+01  6.000E-02  1.391E+00
   1   13    7     6     5    2.3271E+01  1.1326E-02   2.3260E+01  0.000E+00  0.000E+00  0.000E+00  1.02708E+03  1.170E+00  1.200E+01  2.400E-02  1.573E-01
   1   14    9     7     1    1.5000E+02  1.3736E+00   1.4863E+02  0.000E+00  0.000E+00  0.000E+00  1.03987E+03  2.288E+00  5.529E+01  5.593E-01  8.187E-01
   1   13    8     7     2    1.4863E+02  1.9779E+00   1.4665E+02  0.000E+00  0.000E+00  0.000E+00  1.03478E+03  2.279E+00  5.525E+01  6.147E-01  1.072E+00
   1   13    7     7     3    1.4665E+02  1.7206E+00   1.4493E+02  0.000E+00  0.000E+00  0.000E+00  1.02969E+03  2.269E+00  5.521E+01  5.584E-01  1.027E+00
   1   13    6     8     1    1.6819E+02  1.1509E+00   1.6704E+02  0.000E+00  0.000E+00  0.000E+00  1.02481E+03  2.937E+00  4.258E+01  4.339E-01  8.841E-01
   1   13    5     8     2    1.6704E+02  3.8359E-01   1.6665E+02  0.000E+00  0.000E+00  0.000E+00  1.01856E+03  2.932E+00  4.251E+01  4.332E-01  2.952E-01
   1   13    4     8     3    1.6665E+02 -1.7494E+00   1.6840E+02  0.000E+00  0.000E+00  0.000E+00  1.01231E+03  2.936E+00  4.257E+01  4.338E+00 -1.344E-01
   1   13    3     8     4    1.6840E+02 -3.3082E+00   1.7171E+02  0.000E+00  0.000E+00  0.000E+00  1.00608E+03  2.953E+00  4.281E+01  4.363E+00 -2.528E-01
   1   13    2     8     5    1.7171E+02 -2.5047E+00   1.7422E+02  0.000E+00  0.000E+00  0.000E+00  9.99846E+02  2.971E+00  4.309E+01  4.391E+00 -1.902E-01
   1   13    1     8     6    1.7422E+02 -1.9600E+00   1.7618E+02  0.000E+00  0.000E+00  0.000E+00  9.94861E+02  2.986E+00  4.329E+01  2.647E+00 -2.468E-01





UNSATURATED ZONE PACKAGE VOLUMETRIC BUDGET FOR  TIME STEP    30 STRESS PERIOD   44
  ------------------------------------------------------------------------------



     CUMULATIVE VOLUMES      L**3       RATES FOR THIS TIME STEP      L**3/T
     ------------------                 ------------------------

           IN:                                      IN:
           ---                                      ---
        INFILTRATION =  2223529038.4932          INFILTRATION =          91.4654

          OUT:                                     OUT:
          ----                                     ----
              UZF ET =  1808599165.7435                UZF ET =          64.0822
        UZF RECHARGE =   222460178.1055          UZF RECHARGE =           0.0164

            IN - OUT =   192469694.6442              IN - OUT =          27.3668

          STORAGE:                                 STORAGE:
          --------                                 --------
      STORAGE CHANGE =   192471199.1495        STORAGE CHANGE =          27.3668

 PERCENT DISCREPANCY IS DIFFERENCE BETWEEN IN-OUT MINUS CHANGE IN STORAGE
 DIVIDED BY THE AVERAGE OF IN AND OUT TIMES 100

 PERCENT DISCREPANCY =          -0.00     PERCENT DISCREPANCY =           0.00






1
  VOLUMETRIC BUDGET FOR AGRICULTURAL FIELDS AT TIME STEP   30, STRESS PERIOD  44
  ------------------------------------------------------------------------------

     CUMULATIVE VOLUMES      L**3       RATES FOR THIS TIME STEP      L**3/T
     ------------------                 ------------------------

           IN:                                      IN:
           ---                                      ---
               AG WELLS  =  1725013504.0000                 AG WELLS  =          87.0579
      DIVERSION SEGMENTS =           0.0000        DIVERSION SEGMENTS =           0.0000
           GW IRRIGATION =           0.0000             GW IRRIGATION =           0.0000
           SW IRRIGATION =           0.0000             SW IRRIGATION =           0.0000
        SYSTEM LOSSES GW =           0.0000          SYSTEM LOSSES GW =           0.0000
        SYSTEM LOSSES SW =           0.0000          SYSTEM LOSSES SW =           0.0000

                TOTAL IN =  1725013504.0000                  TOTAL IN =          87.0579

          OUT:                                     OUT:
          ----                                     ----
               AG WELLS  =           0.0000                 AG WELLS  =           0.0000
      DIVERSION SEGMENTS =           0.0000        DIVERSION SEGMENTS =           0.0000
           GW IRRIGATION =  1725013504.0000             GW IRRIGATION =          87.0579
           SW IRRIGATION =           0.0000             SW IRRIGATION =           0.0000
        SYSTEM LOSSES GW =           0.0000          SYSTEM LOSSES GW =           0.0000
        SYSTEM LOSSES SW =           0.0000          SYSTEM LOSSES SW =           0.0000

               TOTAL OUT =  1725013504.0000                 TOTAL OUT =          87.0579

                IN - OUT =           0.0000                  IN - OUT =           0.0000

     PERCENT DISCREPANCY =           0.00         PERCENT DISCREPANCY =           0.00



1
  VOLUMETRIC BUDGET FOR ENTIRE MODEL AT END OF TIME STEP   30, STRESS PERIOD  44
  ------------------------------------------------------------------------------

     CUMULATIVE VOLUMES      L**3       RATES FOR THIS TIME STEP      L**3/T
     ------------------                 ------------------------

           IN:                                      IN:
           ---                                      ---
             STORAGE     =  2160990464.0000               STORAGE     =          84.2380
       CONSTANT HEAD     =           0.0000         CONSTANT HEAD     =           0.0000
     HEAD DEP BOUNDS     =    32388610.0000       HEAD DEP BOUNDS     =           0.2883
      STREAM LEAKAGE     =  1386716416.0000        STREAM LEAKAGE     =          12.3466
        UZF RECHARGE     =   222460032.0000          UZF RECHARGE     =       1.6394E-02
               GW ET     =           0.0000                 GW ET     =           0.0000
     SURFACE LEAKAGE     =           0.0000       SURFACE LEAKAGE     =           0.0000
           AG WELLS      =           0.0000             AG WELLS      =           0.0000

                TOTAL IN =  3802555392.0000                  TOTAL IN =          96.8894

          OUT:                                     OUT:
          ----                                     ----
             STORAGE     =   877572544.0000               STORAGE     =       1.7666E-02
       CONSTANT HEAD     =           0.0000         CONSTANT HEAD     =           0.0000
     HEAD DEP BOUNDS     =    33032384.0000       HEAD DEP BOUNDS     =           0.2888
      STREAM LEAKAGE     =  1149634560.0000        STREAM LEAKAGE     =           9.5223
        UZF RECHARGE     =           0.0000          UZF RECHARGE     =           0.0000
               GW ET     =    17288296.0000                 GW ET     =           0.0000
     SURFACE LEAKAGE     =           0.0000       SURFACE LEAKAGE     =           0.0000
           AG WELLS      =  1725013504.0000             AG WELLS      =          87.0579

               TOTAL OUT =  3802541312.0000                 TOTAL OUT =          96.8867

                IN - OUT =       14080.0000                  IN - OUT =       2.6550E-03

     PERCENT DISCREPANCY =           0.00         PERCENT DISCREPANCY =           0.00






         TIME SUMMARY AT END OF TIME STEP   30 IN STRESS PERIOD   44
                    SECONDS     MINUTES      HOURS       DAYS        YEARS
                    -----------------------------------------------------------
   TIME STEP LENGTH  87667.      1461.1      24.352      1.0147     2.77799E-03
 STRESS PERIOD TIME 2.63000E+06  43833.      730.56      30.440     8.33397E-02
         TOTAL TIME 1.13175E+08 1.88626E+06  31438.      1309.9      3.5863    
1
1
                            STRESS PERIOD NO.   45, LENGTH =   2630000.    
                            -----------------------------------------------

                              NUMBER OF TIME STEPS =    30

                               MULTIPLIER FOR DELT =     1.000

                            INITIAL TIME STEP SIZE =   87666.66    

 REUSING NON-PARAMETER GHB CELLS FROM LAST STRESS PERIOD

      2 GHB CELLS

 REUSING STREAM SEGMENT DATA FROM LAST STRESS PERIOD



            AREAL INFILTRATION RATE
 READING ON UNIT   19 WITH FORMAT: (10F4.0)            

            1           2           3           4           5           6           7           8           9          10
 ........................................................................................................................
   1   1.2000E-09   0.000       0.000       0.000       0.000       0.000       0.000       0.000       0.000       0.000    
   2   2.1000E-09  2.0000E-09  8.0000E-10  8.5000E-09   0.000       0.000       0.000       0.000       0.000       0.000    
   3   5.0000E-10  1.1000E-09  8.8000E-09  5.5000E-09   0.000       0.000       0.000       0.000       0.000       0.000    
   4   8.5000E-09  1.1000E-09  1.1000E-09  1.1000E-09  2.0000E-09   0.000       0.000       0.000       0.000       0.000    
   5   8.5000E-09  1.1000E-09  1.1000E-09  1.1000E-09  1.1000E-09   0.000       0.000       0.000       0.000       0.000    
   6   8.5000E-09  5.2000E-09  2.1000E-09  1.1000E-09  1.5000E-09   0.000       0.000       0.000       0.000       0.000    
   7   8.5000E-09  5.2000E-09  2.1000E-09  1.2000E-09  2.0000E-09   0.000       0.000       0.000       0.000       0.000    
   8   5.0000E-10  5.2000E-09  2.1000E-09  1.2000E-09  5.0000E-09   0.000       0.000       0.000       0.000       0.000    
   9   5.0000E-10  5.2000E-09  2.1000E-09  1.2000E-09  5.0000E-09   0.000       0.000       0.000       0.000       0.000    
  10   5.0000E-10  5.2000E-09  2.1000E-09  1.2000E-09  5.8000E-09   0.000       0.000       0.000       0.000       0.000    
  11   1.0000E-10  1.1000E-09  1.1000E-09  1.2000E-09  5.0000E-09   0.000       0.000       0.000       0.000       0.000    
  12   1.1000E-09  1.1000E-09  1.1000E-09  1.1000E-09  2.0000E-09   0.000       0.000       0.000       0.000       0.000    
  13   1.1000E-09  2.2000E-09  2.2000E-09  2.1000E-09  1.0000E-09   0.000       0.000       0.000       0.000       0.000    
  14   2.0000E-10  5.5000E-09  5.5000E-09  5.2000E-09  1.0000E-09   0.000       0.000       0.000       0.000       0.000    
  15    0.000      8.8000E-09  8.8000E-09   0.000       0.000       0.000       0.000       0.000       0.000       0.000    

                  ET RATE =  3.250000E-07

 USING ET EXTINCTION DEPTH FROM PREVIOUS STRESS PERIOD. CURRENT PERIOD IS:      45

 USING EXTINCTION WATER CONTENT FROM PREVIOUS STRESS PERIOD. CURRENT PERIOD IS:      45

 USING AIR ENTRY PRESSURE FROM PREVIOUS STRESS PERIOD. CURRENT PERIOD IS:      45

 USING ROOT PRESSURE HEAD FROM PREVIOUS STRESS PERIOD. CURRENT PERIOD IS:      45

 USING ROOT ACTIVITY FROM PREVIOUS STRESS PERIOD. CURRENT PERIOD IS:      45

 PROCESSING AG STRESS PERIOD DATA

 READING AG STRESS PERIOD DATA

 READING IRRIGATION WELL

 END PROCESSING AG STRESS PERIOD DATA OPTIONS
 
 SOLVING FOR HEAD 
                                                   Max.-Head-Change                         Max.-Flux-Residual
  Residual-Control   Outer-Iter.   Inner-Iter.     Column Row Layer    Maximum-Head-Change  Column Row Layer    Maximum-Flux-Residual          L2-NORM 
          0                 1           2             4    7     1      -0.6755630043E-01       4    7    1        -0.3579433089E+01      0.9470392159E+01
          0                 2           2             4    7     1       0.6571262926E-02       4    7    1         0.3579347823E+00      0.9470281450E+00
          0                 3           2             4    7     1      -0.4474798460E-03       4    7    1        -0.2505552626E-01      0.6629210071E-01
          0                 4           1             4    7     1       0.1780563571E-04       4    7    1         0.1024772070E-02      0.2711352052E-02

    ------------------------------------------------
       NWT REQUIRED            4 OUTER ITERATIONS 
       AND A TOTAL OF          7 INNER ITERATIONS.
    ------------------------------------------------

 NO OUTPUT CONTROL FOR STRESS PERIOD   45   TIME STEP    1
 
 SOLVING FOR HEAD 
                                                   Max.-Head-Change                         Max.-Flux-Residual
  Residual-Control   Outer-Iter.   Inner-Iter.     Column Row Layer    Maximum-Head-Change  Column Row Layer    Maximum-Flux-Residual          L2-NORM 
          0                 1           2             4    7     1      -0.6628781096E-01       4    7    1        -0.3509989252E+01      0.9345057663E+01
          0                 2           2             4    7     1       0.6447878907E-02       4    7    1         0.3509907841E+00      0.9344956144E+00
          0                 3           2             4    7     1      -0.4390777991E-03       4    7    1        -0.2456944253E-01      0.6541481395E-01
          0                 4           1             4    7     1       0.1747131114E-04       4    7    1         0.1004891250E-02      0.2675467739E-02

    ------------------------------------------------
       NWT REQUIRED            4 OUTER ITERATIONS 
       AND A TOTAL OF          7 INNER ITERATIONS.
    ------------------------------------------------

 NO OUTPUT CONTROL FOR STRESS PERIOD   45   TIME STEP    2
 
 SOLVING FOR HEAD 
                                                   Max.-Head-Change                         Max.-Flux-Residual
  Residual-Control   Outer-Iter.   Inner-Iter.     Column Row Layer    Maximum-Head-Change  Column Row Layer    Maximum-Flux-Residual          L2-NORM 
          0                 1           2             4    7     1      -0.6508405435E-01       4    7    1        -0.3444088158E+01      0.9230364776E+01
          0                 2           2             4    7     1       0.6330791398E-02       4    7    1         0.3444010429E+00      0.9230271399E+00
          0                 3           2             4    7     1      -0.4311045229E-03       4    7    1        -0.2410815696E-01      0.6461201276E-01
          0                 4           1             4    7     1       0.1715404688E-04       4    7    1         0.9860246512E-03      0.2642635711E-02

    ------------------------------------------------
       NWT REQUIRED            4 OUTER ITERATIONS 
       AND A TOTAL OF          7 INNER ITERATIONS.
    ------------------------------------------------

 NO OUTPUT CONTROL FOR STRESS PERIOD   45   TIME STEP    3
 
 SOLVING FOR HEAD 
                                                   Max.-Head-Change                         Max.-Flux-Residual
  Residual-Control   Outer-Iter.   Inner-Iter.     Column Row Layer    Maximum-Head-Change  Column Row Layer    Maximum-Flux-Residual          L2-NORM 
          0                 1           2             4    7     1      -0.6394144623E-01       4    7    1        -0.3381536297E+01      0.9125182758E+01
          0                 2           2             4    7     1       0.6219651744E-02       4    7    1         0.3381462082E+00      0.9125096606E+00
          0                 3           2             4    7     1      -0.4235362760E-03       4    7    1        -0.2367031501E-01      0.6387578268E-01
          0                 4           1             4    7     1       0.1685289978E-04       4    7    1         0.9681169149E-03      0.2612523657E-02

    ------------------------------------------------
       NWT REQUIRED            4 OUTER ITERATIONS 
       AND A TOTAL OF          7 INNER ITERATIONS.
    ------------------------------------------------

 NO OUTPUT CONTROL FOR STRESS PERIOD   45   TIME STEP    4
 
 SOLVING FOR HEAD 
                                                   Max.-Head-Change                         Max.-Flux-Residual
  Residual-Control   Outer-Iter.   Inner-Iter.     Column Row Layer    Maximum-Head-Change  Column Row Layer    Maximum-Flux-Residual          L2-NORM 
          0                 1           2             4    7     1      -0.6285707859E-01       4    7    1        -0.3322176579E+01      0.9028515466E+01
          0                 2           2             4    7     1       0.6114177078E-02       4    7    1         0.3322105715E+00      0.9028435722E+00
          0                 3           2             4    7     1      -0.4163537959E-03       4    7    1        -0.2325481710E-01      0.6319914945E-01
          0                 4           1             4    7     1       0.1656710185E-04       4    7    1         0.9511230271E-03      0.2584848746E-02

    ------------------------------------------------
       NWT REQUIRED            4 OUTER ITERATIONS 
       AND A TOTAL OF          7 INNER ITERATIONS.
    ------------------------------------------------

 NO OUTPUT CONTROL FOR STRESS PERIOD   45   TIME STEP    5
 
 SOLVING FOR HEAD 
                                                   Max.-Head-Change                         Max.-Flux-Residual
  Residual-Control   Outer-Iter.   Inner-Iter.     Column Row Layer    Maximum-Head-Change  Column Row Layer    Maximum-Flux-Residual          L2-NORM 
          0                 1           2             4    7     1      -0.6182762829E-01       4    7    1        -0.3265829461E+01      0.8939441544E+01
          0                 2           2             4    7     1       0.6014044156E-02       4    7    1         0.3265761791E+00      0.8939367917E+00
          0                 3           2             4    7     1      -0.4095350708E-03       4    7    1        -0.2286040644E-01      0.6257567020E-01
          0                 4           1             4    7     1       0.1629577902E-04       4    7    1         0.9349916181E-03      0.2559348469E-02

    ------------------------------------------------
       NWT REQUIRED            4 OUTER ITERATIONS 
       AND A TOTAL OF          7 INNER ITERATIONS.
    ------------------------------------------------

 NO OUTPUT CONTROL FOR STRESS PERIOD   45   TIME STEP    6
 
 SOLVING FOR HEAD 
                                                   Max.-Head-Change                         Max.-Flux-Residual
  Residual-Control   Outer-Iter.   Inner-Iter.     Column Row Layer    Maximum-Head-Change  Column Row Layer    Maximum-Flux-Residual          L2-NORM 
          0                 1           2             4    7     1      -0.6085032156E-01       4    7    1        -0.3212344206E+01      0.8857185000E+01
          0                 2           2             4    7     1       0.5918983172E-02       4    7    1         0.3212279575E+00      0.8857116465E+00
          0                 3           2             4    7     1      -0.4030617282E-03       4    7    1        -0.2248602789E-01      0.6199990368E-01
          0                 4           1             4    7     1       0.1603819863E-04       4    7    1         0.9196795372E-03      0.2535808626E-02

    ------------------------------------------------
       NWT REQUIRED            4 OUTER ITERATIONS 
       AND A TOTAL OF          7 INNER ITERATIONS.
    ------------------------------------------------

 NO OUTPUT CONTROL FOR STRESS PERIOD   45   TIME STEP    7
 
 SOLVING FOR HEAD 
                                                   Max.-Head-Change                         Max.-Flux-Residual
  Residual-Control   Outer-Iter.   Inner-Iter.     Column Row Layer    Maximum-Head-Change  Column Row Layer    Maximum-Flux-Residual          L2-NORM 
          0                 1           2             4    7     1      -0.5992223710E-01       4    7    1        -0.3161562612E+01      0.8781016137E+01
          0                 2           2             4    7     1       0.5828709968E-02       4    7    1         0.3161500874E+00      0.8780952239E+00
          0                 3           2             4    7     1      -0.3969144176E-03       4    7    1        -0.2213057409E-01      0.6146674985E-01
          0                 4           1             4    7     1       0.1579359197E-04       4    7    1         0.9051414718E-03      0.2513996899E-02

    ------------------------------------------------
       NWT REQUIRED            4 OUTER ITERATIONS 
       AND A TOTAL OF          7 INNER ITERATIONS.
    ------------------------------------------------

 NO OUTPUT CONTROL FOR STRESS PERIOD   45   TIME STEP    8
 
 SOLVING FOR HEAD 
                                                   Max.-Head-Change                         Max.-Flux-Residual
  Residual-Control   Outer-Iter.   Inner-Iter.     Column Row Layer    Maximum-Head-Change  Column Row Layer    Maximum-Flux-Residual          L2-NORM 
          0                 1           2             4    7     1      -0.5904085663E-01       4    7    1        -0.3113347584E+01      0.8710317656E+01
          0                 2           2             4    7     1       0.5742979590E-02       4    7    1         0.3113288595E+00      0.8710257717E+00
          0                 3           2             4    7     1      -0.3910764586E-03       4    7    1        -0.2179308540E-01      0.6097188352E-01
          0                 4           1             4    7     1       0.1556129440E-04       4    7    1         0.8913381839E-03      0.2493862908E-02

    ------------------------------------------------
       NWT REQUIRED            4 OUTER ITERATIONS 
       AND A TOTAL OF          7 INNER ITERATIONS.
    ------------------------------------------------

 NO OUTPUT CONTROL FOR STRESS PERIOD   45   TIME STEP    9
 
 SOLVING FOR HEAD 
                                                   Max.-Head-Change                         Max.-Flux-Residual
  Residual-Control   Outer-Iter.   Inner-Iter.     Column Row Layer    Maximum-Head-Change  Column Row Layer    Maximum-Flux-Residual          L2-NORM 
          0                 1           2             4    7     1      -0.5820338382E-01       4    7    1        -0.3067546987E+01      0.8644511286E+01
          0                 2           2             4    7     1       0.5661520040E-02       4    7    1         0.3067490612E+00      0.8644376484E+00
          0                 3           2             4    7     1      -0.3855293288E-03       4    7    1        -0.2147249689E-01      0.6051071176E-01
          0                 4           1             4    7     1       0.1534056924E-04       4    7    1         0.8782261068E-03      0.2474891461E-02

    ------------------------------------------------
       NWT REQUIRED            4 OUTER ITERATIONS 
       AND A TOTAL OF          7 INNER ITERATIONS.
    ------------------------------------------------

 NO OUTPUT CONTROL FOR STRESS PERIOD   45   TIME STEP   10
 
 SOLVING FOR HEAD 
                                                   Max.-Head-Change                         Max.-Flux-Residual
  Residual-Control   Outer-Iter.   Inner-Iter.     Column Row Layer    Maximum-Head-Change  Column Row Layer    Maximum-Flux-Residual          L2-NORM 
          0                 1           2             4    7     1      -0.5740755722E-01       4    7    1        -0.3024037389E+01      0.8583110910E+01
          0                 2           2             4    7     1       0.5584111345E-02       4    7    1         0.3023983493E+00      0.8583057635E+00
          0                 3           2             4    7     1      -0.3802580492E-03       4    7    1        -0.2116794459E-01      0.6008147613E-01
          0                 4           1             4    7     1       0.1513081999E-04       4    7    1         0.8657699047E-03      0.2457335755E-02

    ------------------------------------------------
       NWT REQUIRED            4 OUTER ITERATIONS 
       AND A TOTAL OF          7 INNER ITERATIONS.
    ------------------------------------------------

 NO OUTPUT CONTROL FOR STRESS PERIOD   45   TIME STEP   11
 
 SOLVING FOR HEAD 
                                                   Max.-Head-Change                         Max.-Flux-Residual
  Residual-Control   Outer-Iter.   Inner-Iter.     Column Row Layer    Maximum-Head-Change  Column Row Layer    Maximum-Flux-Residual          L2-NORM 
          0                 1           2             4    7     1      -0.5665096105E-01       4    7    1        -0.2982687160E+01      0.8525677164E+01
          0                 2           2             4    7     1       0.5510518524E-02       4    7    1         0.2982635617E+00      0.8525626657E+00
          0                 3           2             4    7     1      -0.3752466183E-03       4    7    1        -0.2087850711E-01      0.5967945637E-01
          0                 4           1             4    7     1       0.1493141081E-04       4    7    1         0.8539319228E-03      0.2440892596E-02

    ------------------------------------------------
       NWT REQUIRED            4 OUTER ITERATIONS 
       AND A TOTAL OF          7 INNER ITERATIONS.
    ------------------------------------------------

 NO OUTPUT CONTROL FOR STRESS PERIOD   45   TIME STEP   12
 
 SOLVING FOR HEAD 
                                                   Max.-Head-Change                         Max.-Flux-Residual
  Residual-Control   Outer-Iter.   Inner-Iter.     Column Row Layer    Maximum-Head-Change  Column Row Layer    Maximum-Flux-Residual          L2-NORM 
          0                 1           2             4    7     1      -0.5593143616E-01       4    7    1        -0.2943378225E+01      0.8471792843E+01
          0                 2           2             4    7     1       0.5440531555E-02       4    7    1         0.2943328913E+00      0.8471744819E+00
          0                 3           2             4    7     1      -0.3704807337E-03       4    7    1        -0.2060335795E-01      0.5930228093E-01
          0                 4           1             4    7     1       0.1474177159E-04       4    7    1         0.8426782967E-03      0.2425469563E-02

    ------------------------------------------------
       NWT REQUIRED            4 OUTER ITERATIONS 
       AND A TOTAL OF          7 INNER ITERATIONS.
    ------------------------------------------------

 NO OUTPUT CONTROL FOR STRESS PERIOD   45   TIME STEP   13
 
 SOLVING FOR HEAD 
                                                   Max.-Head-Change                         Max.-Flux-Residual
  Residual-Control   Outer-Iter.   Inner-Iter.     Column Row Layer    Maximum-Head-Change  Column Row Layer    Maximum-Flux-Residual          L2-NORM 
          0                 1           2             4    7     1      -0.5524679680E-01       4    7    1        -0.2905991448E+01      0.8421114165E+01
          0                 2           2             4    7     1       0.5373937832E-02       4    7    1         0.2905944250E+00      0.8421068334E+00
          0                 3           2             4    7     1      -0.3659459183E-03       4    7    1        -0.2034166319E-01      0.5894754314E-01
          0                 4           1             4    7     1       0.1456132715E-04       4    7    1         0.8319749747E-03      0.2410957675E-02

    ------------------------------------------------
       NWT REQUIRED            4 OUTER ITERATIONS 
       AND A TOTAL OF          7 INNER ITERATIONS.
    ------------------------------------------------

 NO OUTPUT CONTROL FOR STRESS PERIOD   45   TIME STEP   14
 
 SOLVING FOR HEAD 
                                                   Max.-Head-Change                         Max.-Flux-Residual
  Residual-Control   Outer-Iter.   Inner-Iter.     Column Row Layer    Maximum-Head-Change  Column Row Layer    Maximum-Flux-Residual          L2-NORM 
          0                 1           2             4    7     1      -0.5459511385E-01       4    7    1        -0.2870420680E+01      0.8373329454E+01
          0                 2           2             4    7     1       0.5310549714E-02       4    7    1         0.2870375483E+00      0.8373285582E+00
          0                 3           2             4    7     1      -0.3616293950E-03       4    7    1        -0.2009267984E-01      0.5861306172E-01
          0                 4           1             4    7     1       0.1438956921E-04       4    7    1         0.8217915579E-03      0.2397277395E-02

    ------------------------------------------------
       NWT REQUIRED            4 OUTER ITERATIONS 
       AND A TOTAL OF          7 INNER ITERATIONS.
    ------------------------------------------------

 NO OUTPUT CONTROL FOR STRESS PERIOD   45   TIME STEP   15
 
 SOLVING FOR HEAD 
                                                   Max.-Head-Change                         Max.-Flux-Residual
  Residual-Control   Outer-Iter.   Inner-Iter.     Column Row Layer    Maximum-Head-Change  Column Row Layer    Maximum-Flux-Residual          L2-NORM 
          0                 1           2             4    7     1      -0.5397441992E-01       4    7    1        -0.2836558713E+01      0.8328145703E+01
          0                 2           2             4    7     1       0.5250175829E-02       4    7    1         0.2836515412E+00      0.8328103572E+00
          0                 3           2             4    7     1      -0.3575181303E-03       4    7    1        -0.1985565742E-01      0.5829678526E-01
          0                 4           1             4    7     1       0.1422597807E-04       4    7    1         0.8120973373E-03      0.2384342595E-02

    ------------------------------------------------
       NWT REQUIRED            4 OUTER ITERATIONS 
       AND A TOTAL OF          7 INNER ITERATIONS.
    ------------------------------------------------

 NO OUTPUT CONTROL FOR STRESS PERIOD   45   TIME STEP   16
 
 SOLVING FOR HEAD 
                                                   Max.-Head-Change                         Max.-Flux-Residual
  Residual-Control   Outer-Iter.   Inner-Iter.     Column Row Layer    Maximum-Head-Change  Column Row Layer    Maximum-Flux-Residual          L2-NORM 
          0                 1           2             4    7     1      -0.5338299306E-01       4    7    1        -0.2804310718E+01      0.8285323792E+01
          0                 2           2             4    7     1       0.5192648688E-02       4    7    1         0.2804269208E+00      0.8285283224E+00
          0                 3           2             4    7     1      -0.3536007204E-03       4    7    1        -0.1962993222E-01      0.5799704149E-01
          0                 4           1             4    7     1       0.1407010082E-04       4    7    1         0.8028651614E-03      0.2372082248E-02

    ------------------------------------------------
       NWT REQUIRED            4 OUTER ITERATIONS 
       AND A TOTAL OF          7 INNER ITERATIONS.
    ------------------------------------------------

 NO OUTPUT CONTROL FOR STRESS PERIOD   45   TIME STEP   17
 
 SOLVING FOR HEAD 
                                                   Max.-Head-Change                         Max.-Flux-Residual
  Residual-Control   Outer-Iter.   Inner-Iter.     Column Row Layer    Maximum-Head-Change  Column Row Layer    Maximum-Flux-Residual          L2-NORM 
          0                 1           2             4    7     1      -0.5281907068E-01       4    7    1        -0.2773580230E+01      0.8244635868E+01
          0                 2           2             4    7     1       0.5137796844E-02       4    7    1         0.2773540416E+00      0.8244596692E+00
          0                 3           2             4    7     1      -0.3498654892E-03       4    7    1        -0.1941482895E-01      0.5771223373E-01
          0                 4           1             4    7     1       0.1392147259E-04       4    7    1         0.7940674329E-03      0.2360433239E-02

    ------------------------------------------------
       NWT REQUIRED            4 OUTER ITERATIONS 
       AND A TOTAL OF          7 INNER ITERATIONS.
    ------------------------------------------------

 NO OUTPUT CONTROL FOR STRESS PERIOD   45   TIME STEP   18
 
 SOLVING FOR HEAD 
                                                   Max.-Head-Change                         Max.-Flux-Residual
  Residual-Control   Outer-Iter.   Inner-Iter.     Column Row Layer    Maximum-Head-Change  Column Row Layer    Maximum-Flux-Residual          L2-NORM 
          0                 1           2             4    7     1      -0.5228111942E-01       4    7    1        -0.2744283036E+01      0.8205881998E+01
          0                 2           2             4    7     1       0.5085471151E-02       4    7    1         0.2744244824E+00      0.8205844056E+00
          0                 3           2             4    7     1      -0.3463022814E-03       4    7    1        -0.1920975824E-01      0.5744096341E-01
          0                 4           1             4    7     1       0.1377968903E-04       4    7    1         0.7856800321E-03      0.2349338984E-02

    ------------------------------------------------
       NWT REQUIRED            4 OUTER ITERATIONS 
       AND A TOTAL OF          7 INNER ITERATIONS.
    ------------------------------------------------

 NO OUTPUT CONTROL FOR STRESS PERIOD   45   TIME STEP   19
 
 SOLVING FOR HEAD 
                                                   Max.-Head-Change                         Max.-Flux-Residual
  Residual-Control   Outer-Iter.   Inner-Iter.     Column Row Layer    Maximum-Head-Change  Column Row Layer    Maximum-Flux-Residual          L2-NORM 
          0                 1           2             4    7     1      -0.5176742970E-01       4    7    1        -0.2716325279E+01      0.8168890482E+01
          0                 2           2             4    7     1       0.5035505318E-02       4    7    1         0.2716288580E+00      0.8168853646E+00
          0                 3           2             4    7     1      -0.3428997718E-03       4    7    1        -0.1901406298E-01      0.5718202936E-01
          0                 4           1             4    7     1       0.1364430012E-04       4    7    1         0.7776760935E-03      0.2338748807E-02

    ------------------------------------------------
       NWT REQUIRED            4 OUTER ITERATIONS 
       AND A TOTAL OF          7 INNER ITERATIONS.
    ------------------------------------------------

 NO OUTPUT CONTROL FOR STRESS PERIOD   45   TIME STEP   20
 
 SOLVING FOR HEAD 
                                                   Max.-Head-Change                         Max.-Flux-Residual
  Residual-Control   Outer-Iter.   Inner-Iter.     Column Row Layer    Maximum-Head-Change  Column Row Layer    Maximum-Flux-Residual          L2-NORM 
          0                 1           2             4    7     1      -0.5127678536E-01       4    7    1        -0.2689639844E+01      0.8133497378E+01
          0                 2           2             4    7     1       0.4987781054E-02       4    7    1         0.2689604574E+00      0.8133461518E+00
          0                 3           2             4    7     1      -0.3396499066E-03       4    7    1        -0.1882727353E-01      0.5693428273E-01
          0                 4           1             4    7     1       0.1351498535E-04       4    7    1         0.7700364044E-03      0.2328615768E-02

    ------------------------------------------------
       NWT REQUIRED            4 OUTER ITERATIONS 
       AND A TOTAL OF          7 INNER ITERATIONS.
    ------------------------------------------------

 NO OUTPUT CONTROL FOR STRESS PERIOD   45   TIME STEP   21
 
 SOLVING FOR HEAD 
                                                   Max.-Head-Change                         Max.-Flux-Residual
  Residual-Control   Outer-Iter.   Inner-Iter.     Column Row Layer    Maximum-Head-Change  Column Row Layer    Maximum-Flux-Residual          L2-NORM 
          0                 1           2             4    7     1      -0.5080777181E-01       4    7    1        -0.2664149319E+01      0.8099565314E+01
          0                 2           2             4    7     1       0.4942160761E-02       4    7    1         0.2664115399E+00      0.8099530346E+00
          0                 3           2             4    7     1      -0.3365433147E-03       4    7    1        -0.1864884795E-01      0.5669676335E-01
          0                 4           1             4    7     1       0.1339137112E-04       4    7    1         0.7627387913E-03      0.2318900733E-02

    ------------------------------------------------
       NWT REQUIRED            4 OUTER ITERATIONS 
       AND A TOTAL OF          7 INNER ITERATIONS.
    ------------------------------------------------

 NO OUTPUT CONTROL FOR STRESS PERIOD   45   TIME STEP   22
 
 SOLVING FOR HEAD 
                                                   Max.-Head-Change                         Max.-Flux-Residual
  Residual-Control   Outer-Iter.   Inner-Iter.     Column Row Layer    Maximum-Head-Change  Column Row Layer    Maximum-Flux-Residual          L2-NORM 
          0                 1           2             4    7     1      -0.5035906341E-01       4    7    1        -0.2639780359E+01      0.8066964119E+01
          0                 2           2             4    7     1       0.4898515498E-02       4    7    1         0.2639747713E+00      0.8066929940E+00
          0                 3           2             4    7     1      -0.3335712163E-03       4    7    1        -0.1847827285E-01      0.5646855958E-01
          0                 4           1             4    7     1       0.1327310894E-04       4    7    1         0.7557622778E-03      0.2309567335E-02

    ------------------------------------------------
       NWT REQUIRED            4 OUTER ITERATIONS 
       AND A TOTAL OF          7 INNER ITERATIONS.
    ------------------------------------------------

 NO OUTPUT CONTROL FOR STRESS PERIOD   45   TIME STEP   23
 
 SOLVING FOR HEAD 
                                                   Max.-Head-Change                         Max.-Flux-Residual
  Residual-Control   Outer-Iter.   Inner-Iter.     Column Row Layer    Maximum-Head-Change  Column Row Layer    Maximum-Flux-Residual          L2-NORM 
          0                 1           2             4    7     1      -0.4992940417E-01       4    7    1        -0.2616464230E+01      0.8035574182E+01
          0                 2           2             4    7     1       0.4856723097E-02       4    7    1         0.2616432786E+00      0.8035540704E+00
          0                 3           2             4    7     1      -0.3307252918E-03       4    7    1        -0.1831506717E-01      0.5624883206E-01
          0                 4           1             4    7     1       0.1315986644E-04       4    7    1         0.7490871376E-03      0.2300579737E-02

    ------------------------------------------------
       NWT REQUIRED            4 OUTER ITERATIONS 
       AND A TOTAL OF          7 INNER ITERATIONS.
    ------------------------------------------------

 NO OUTPUT CONTROL FOR STRESS PERIOD   45   TIME STEP   24
 
 SOLVING FOR HEAD 
                                                   Max.-Head-Change                         Max.-Flux-Residual
  Residual-Control   Outer-Iter.   Inner-Iter.     Column Row Layer    Maximum-Head-Change  Column Row Layer    Maximum-Flux-Residual          L2-NORM 
          0                 1           2             4    7     1      -0.4951775156E-01       4    7    1        -0.2594142980E+01      0.8005307325E+01
          0                 2           2             4    7     1       0.4816682154E-02       4    7    1         0.2594112669E+00      0.8005274469E+00
          0                 3           2             4    7     1      -0.3279986362E-03       4    7    1        -0.1815882521E-01      0.5603696924E-01
          0                 4           1             4    7     1       0.1305137088E-04       4    7    1         0.7426968621E-03      0.2291923461E-02

    ------------------------------------------------
       NWT REQUIRED            4 OUTER ITERATIONS 
       AND A TOTAL OF          7 INNER ITERATIONS.
    ------------------------------------------------

 NO OUTPUT CONTROL FOR STRESS PERIOD   45   TIME STEP   25
 
 SOLVING FOR HEAD 
                                                   Max.-Head-Change                         Max.-Flux-Residual
  Residual-Control   Outer-Iter.   Inner-Iter.     Column Row Layer    Maximum-Head-Change  Column Row Layer    Maximum-Flux-Residual          L2-NORM 
          0                 1           2             4    7     1      -0.4912285868E-01       4    7    1        -0.2572748210E+01      0.7976062568E+01
          0                 2           2             4    7     1       0.4778271383E-02       4    7    1         0.2572718969E+00      0.7976030271E+00
          0                 3           2             4    7     1      -0.3253829898E-03       4    7    1        -0.1800906822E-01      0.5583225804E-01
          0                 4           1             4    7     1       0.1294729161E-04       4    7    1         0.7365717852E-03      0.2283542329E-02

    ------------------------------------------------
       NWT REQUIRED            4 OUTER ITERATIONS 
       AND A TOTAL OF          7 INNER ITERATIONS.
    ------------------------------------------------

 NO OUTPUT CONTROL FOR STRESS PERIOD   45   TIME STEP   26
 
 SOLVING FOR HEAD 
                                                   Max.-Head-Change                         Max.-Flux-Residual
  Residual-Control   Outer-Iter.   Inner-Iter.     Column Row Layer    Maximum-Head-Change  Column Row Layer    Maximum-Flux-Residual          L2-NORM 
          0                 1           2             4    7     1      -0.4874394288E-01       4    7    1        -0.2552236781E+01      0.7947755894E+01
          0                 2           2             4    7     1       0.4741414660E-02       4    7    1         0.2552208549E+00      0.7947724093E+00
          0                 3           2             4    7     1      -0.3228731698E-03       4    7    1        -0.1786549428E-01      0.5563411372E-01
          0                 4           1             4    7     1       0.1284742372E-04       4    7    1         0.7306996154E-03      0.2275438307E-02

    ------------------------------------------------
       NWT REQUIRED            4 OUTER ITERATIONS 
       AND A TOTAL OF          7 INNER ITERATIONS.
    ------------------------------------------------

 NO OUTPUT CONTROL FOR STRESS PERIOD   45   TIME STEP   27
 
 SOLVING FOR HEAD 
                                                   Max.-Head-Change                         Max.-Flux-Residual
  Residual-Control   Outer-Iter.   Inner-Iter.     Column Row Layer    Maximum-Head-Change  Column Row Layer    Maximum-Flux-Residual          L2-NORM 
          0                 1           2             4    7     1      -0.4837988125E-01       4    7    1        -0.2532546600E+01      0.7920322954E+01
          0                 2           2             4    7     1       0.4706002761E-02       4    7    1         0.2532519320E+00      0.7920291585E+00
          0                 3           2             4    7     1      -0.3204617373E-03       4    7    1        -0.1772766871E-01      0.5544208530E-01
          0                 4           1             4    7     1       0.1275147073E-04       4    7    1         0.7250625508E-03      0.2267584611E-02

    ------------------------------------------------
       NWT REQUIRED            4 OUTER ITERATIONS 
       AND A TOTAL OF          7 INNER ITERATIONS.
    ------------------------------------------------

 NO OUTPUT CONTROL FOR STRESS PERIOD   45   TIME STEP   28
 
 SOLVING FOR HEAD 
                                                   Max.-Head-Change                         Max.-Flux-Residual
  Residual-Control   Outer-Iter.   Inner-Iter.     Column Row Layer    Maximum-Head-Change  Column Row Layer    Maximum-Flux-Residual          L2-NORM 
          0                 1           2             4    7     1      -0.4802974665E-01       4    7    1        -0.2513626615E+01      0.7893691010E+01
          0                 2           2             4    7     1       0.4671945504E-02       4    7    1         0.2513600233E+00      0.7893660039E+00
          0                 3           2             4    7     1      -0.3181425517E-03       4    7    1        -0.1759523420E-01      0.5525566344E-01
          0                 4           1             4    7     1       0.1265918825E-04       4    7    1         0.7196459717E-03      0.2259959516E-02

    ------------------------------------------------
       NWT REQUIRED            4 OUTER ITERATIONS 
       AND A TOTAL OF          7 INNER ITERATIONS.
    ------------------------------------------------

 NO OUTPUT CONTROL FOR STRESS PERIOD   45   TIME STEP   29
 
 SOLVING FOR HEAD 
                                                   Max.-Head-Change                         Max.-Flux-Residual
  Residual-Control   Outer-Iter.   Inner-Iter.     Column Row Layer    Maximum-Head-Change  Column Row Layer    Maximum-Flux-Residual          L2-NORM 
          0                 1           2             4    7     1      -0.4769293435E-01       4    7    1        -0.2495443090E+01      0.7867802693E+01
          0                 2           2             4    7     1       0.4639184072E-02       4    7    1         0.2495417554E+00      0.7867772052E+00
          0                 3           2             4    7     1      -0.3159116075E-03       4    7    1        -0.1746795458E-01      0.5507444640E-01
          0                 4           1             4    7     1       0.1257041681E-04       4    7    1         0.7144402248E-03      0.2252548188E-02

    ------------------------------------------------
       NWT REQUIRED            4 OUTER ITERATIONS 
       AND A TOTAL OF          7 INNER ITERATIONS.
    ------------------------------------------------

 NO OUTPUT CONTROL FOR STRESS PERIOD   45   TIME STEP   30



 STREAM LISTING     PERIOD     45   STEP       30

 LAYER ROW COL. STREAM  RCH.  FLOW INTO     FLOW TO   FLOW OUT OF   OVRLND.     DIRECT     STREAM       STREAM     STREAM     STREAM   STREAMBED  STREAMBED
                SEG.NO.  NO.  STRM. RCH.    AQUIFER    STRM. RCH.    RUNOFF     PRECIP       ET          HEAD       DEPTH      WIDTH   CONDCTNC.   GRADIENT

   1    1    1     1     1    1.9000E+01  2.1427E-01   1.8786E+01  0.000E+00  0.000E+00  0.000E+00  1.09413E+03  1.082E+00  1.166E+01  5.249E-02  1.361E+00
   1    2    2     1     2    1.8786E+01  3.3054E-01   1.8455E+01  0.000E+00  0.000E+00  0.000E+00  1.08914E+03  1.077E+00  1.158E+01  8.107E-02  1.359E+00
   1    3    3     1     3    1.8455E+01  2.8064E-01   1.8175E+01  0.000E+00  0.000E+00  0.000E+00  1.08349E+03  1.072E+00  1.149E+01  6.892E-02  1.357E+00
   1    3    4     1     4    1.8175E+01  2.5740E-01   1.7917E+01  0.000E+00  0.000E+00  0.000E+00  1.07848E+03  1.068E+00  1.140E+01  6.328E-02  1.356E+00
   1    4    5     2     1    1.5917E+01  3.0542E-01   1.5612E+01  0.000E+00  0.000E+00  0.000E+00  1.07285E+03  9.157E-01  1.200E+01  7.800E-02  1.305E+00
   1    5    6     2     2    1.5612E+01  2.3438E-01   1.5377E+01  0.000E+00  0.000E+00  0.000E+00  1.06742E+03  9.063E-01  1.200E+01  6.000E-02  1.302E+00
   1    6    6     2     3    1.5377E+01  2.3388E-01   1.5143E+01  0.000E+00  0.000E+00  0.000E+00  1.06269E+03  8.980E-01  1.200E+01  6.000E-02  1.299E+00
   1    7    6     2     4    1.5143E+01  2.3338E-01   1.4910E+01  0.000E+00  0.000E+00  0.000E+00  1.05797E+03  8.897E-01  1.200E+01  6.000E-02  1.297E+00
   1    8    6     2     5    1.4910E+01  2.3289E-01   1.4677E+01  0.000E+00  0.000E+00  0.000E+00  1.05324E+03  8.814E-01  1.200E+01  6.000E-02  1.294E+00
   1    3    5     3     1    2.0000E+00  2.8252E-01   1.7175E+00  0.000E+00  0.000E+00  0.000E+00  1.07555E+03  1.909E+00  9.636E+00  7.227E-02  1.955E+00
   1    3    6     3     2    1.7175E+00  2.4905E-01   1.4684E+00  0.000E+00  0.000E+00  0.000E+00  1.07264E+03  1.727E+00  8.909E+00  6.682E-02  1.864E+00
   1    3    7     3     3    1.4684E+00  1.9718E-01   1.2712E+00  0.000E+00  0.000E+00  0.000E+00  1.06987E+03  1.555E+00  8.218E+00  5.547E-02  1.777E+00
   1    4    8     3     4    1.2712E+00  2.2567E-01   1.0456E+00  0.000E+00  0.000E+00  0.000E+00  1.06682E+03  1.364E+00  7.455E+00  6.709E-02  1.682E+00
   1    5    8     3     5    1.0456E+00  1.5790E-01   8.8768E-01  0.000E+00  0.000E+00  0.000E+00  1.06362E+03  1.164E+00  6.655E+00  4.991E-02  1.582E+00
   1    6    8     3     6    8.8768E-01  5.5980E-02   8.3170E-01  0.000E+00  0.000E+00  0.000E+00  1.06158E+03  1.036E+00  6.145E+00  1.844E-02  1.518E+00
   1    5   10     4     1    1.0000E+01  9.0919E-02   9.9091E+00  0.000E+00  0.000E+00  0.000E+00  1.07836E+03  6.368E-01  1.000E+01  2.500E-02  1.212E+00
   1    5    9     4     2    9.9091E+00  1.8158E-01   9.7275E+00  0.000E+00  0.000E+00  0.000E+00  1.07154E+03  6.315E-01  1.000E+01  5.000E-02  1.211E+00
   1    6    8     4     3    9.7275E+00  1.2689E-01   9.6006E+00  0.000E+00  0.000E+00  0.000E+00  1.06381E+03  6.256E-01  1.000E+01  3.500E-02  1.209E+00
   1    6    8     5     1    1.0432E+01  2.2686E-01   1.0205E+01  0.000E+00  0.000E+00  0.000E+00  1.05868E+03  6.790E-01  1.542E+01  6.166E-02  1.226E+00
   1    7    7     5     2    1.0205E+01  2.7894E-01   9.9265E+00  0.000E+00  0.000E+00  0.000E+00  1.05417E+03  6.732E-01  1.519E+01  7.594E-02  1.224E+00
   1    8    7     5     3    9.9265E+00  1.9221E-01   9.7343E+00  0.000E+00  0.000E+00  0.000E+00  1.04992E+03  6.676E-01  1.497E+01  5.241E-02  1.223E+00
   1    8    6     5     4    9.7343E+00  1.3577E-01   9.5985E+00  0.000E+00  0.000E+00  0.000E+00  1.04691E+03  6.637E-01  1.482E+01  3.706E-02  1.221E+00
   1    9    6     6     1    2.4276E+01  2.5176E-01   2.4024E+01  0.000E+00  0.000E+00  0.000E+00  1.04392E+03  1.196E+00  1.200E+01  6.000E-02  1.399E+00
   1   10    7     6     2    2.4024E+01  2.5131E-01   2.3773E+01  0.000E+00  0.000E+00  0.000E+00  1.03937E+03  1.188E+00  1.200E+01  6.000E-02  1.396E+00
   1   11    7     6     3    2.3773E+01  2.5086E-01   2.3522E+01  0.000E+00  0.000E+00  0.000E+00  1.03482E+03  1.181E+00  1.200E+01  6.000E-02  1.394E+00
   1   12    7     6     4    2.3522E+01  2.5041E-01   2.3271E+01  0.000E+00  0.000E+00  0.000E+00  1.03026E+03  1.173E+00  1.200E+01  6.000E-02  1.391E+00
   1   13    7     6     5    2.3271E+01  1.1498E-02   2.3260E+01  0.000E+00  0.000E+00  0.000E+00  1.02708E+03  1.169E+00  1.200E+01  2.400E-02  1.597E-01
   1   14    9     7     1    1.5000E+02  1.3757E+00   1.4862E+02  0.000E+00  0.000E+00  0.000E+00  1.03987E+03  2.288E+00  5.529E+01  5.593E-01  8.199E-01
   1   13    8     7     2    1.4862E+02  1.9821E+00   1.4664E+02  0.000E+00  0.000E+00  0.000E+00  1.03478E+03  2.279E+00  5.525E+01  6.147E-01  1.075E+00
   1   13    7     7     3    1.4664E+02  1.7246E+00   1.4492E+02  0.000E+00  0.000E+00  0.000E+00  1.02969E+03  2.269E+00  5.521E+01  5.584E-01  1.030E+00
   1   13    6     8     1    1.6818E+02  1.1539E+00   1.6702E+02  0.000E+00  0.000E+00  0.000E+00  1.02481E+03  2.937E+00  4.258E+01  4.339E-01  8.864E-01
   1   13    5     8     2    1.6702E+02  3.8632E-01   1.6664E+02  0.000E+00  0.000E+00  0.000E+00  1.01856E+03  2.931E+00  4.251E+01  4.331E-01  2.973E-01
   1   13    4     8     3    1.6664E+02 -1.7390E+00   1.6838E+02  0.000E+00  0.000E+00  0.000E+00  1.01231E+03  2.936E+00  4.257E+01  4.338E+00 -1.336E-01
   1   13    3     8     4    1.6838E+02 -3.3042E+00   1.7168E+02  0.000E+00  0.000E+00  0.000E+00  1.00608E+03  2.952E+00  4.281E+01  4.362E+00 -2.525E-01
   1   13    2     8     5    1.7168E+02 -2.5007E+00   1.7418E+02  0.000E+00  0.000E+00  0.000E+00  9.99846E+02  2.971E+00  4.308E+01  4.390E+00 -1.899E-01
   1   13    1     8     6    1.7418E+02 -1.9592E+00   1.7614E+02  0.000E+00  0.000E+00  0.000E+00  9.94860E+02  2.985E+00  4.329E+01  2.647E+00 -2.467E-01





UNSATURATED ZONE PACKAGE VOLUMETRIC BUDGET FOR  TIME STEP    30 STRESS PERIOD   45
  ------------------------------------------------------------------------------



     CUMULATIVE VOLUMES      L**3       RATES FOR THIS TIME STEP      L**3/T
     ------------------                 ------------------------

           IN:                                      IN:
           ---                                      ---
        INFILTRATION =  2362544255.5732          INFILTRATION =          52.8575

          OUT:                                     OUT:
          ----                                     ----
              UZF ET =  1947614382.8236                UZF ET =          52.8575
        UZF RECHARGE =   222503534.0560          UZF RECHARGE =           0.0164

            IN - OUT =   192426338.6936              IN - OUT =      -1.6422E-02

          STORAGE:                                 STORAGE:
          --------                                 --------
      STORAGE CHANGE =   192427843.1988        STORAGE CHANGE =      -1.6422E-02

 PERCENT DISCREPANCY IS DIFFERENCE BETWEEN IN-OUT MINUS CHANGE IN STORAGE
 DIVIDED BY THE AVERAGE OF IN AND OUT TIMES 100

 PERCENT DISCREPANCY =          -0.00     PERCENT DISCREPANCY =           0.00






1
  VOLUMETRIC BUDGET FOR AGRICULTURAL FIELDS AT TIME STEP   30, STRESS PERIOD  45
  ------------------------------------------------------------------------------

     CUMULATIVE VOLUMES      L**3       RATES FOR THIS TIME STEP      L**3/T
     ------------------                 ------------------------

           IN:                                      IN:
           ---                                      ---
               AG WELLS  =  1852436224.0000                 AG WELLS  =          48.4500
      DIVERSION SEGMENTS =           0.0000        DIVERSION SEGMENTS =           0.0000
           GW IRRIGATION =           0.0000             GW IRRIGATION =           0.0000
           SW IRRIGATION =           0.0000             SW IRRIGATION =           0.0000
        SYSTEM LOSSES GW =           0.0000          SYSTEM LOSSES GW =           0.0000
        SYSTEM LOSSES SW =           0.0000          SYSTEM LOSSES SW =           0.0000

                TOTAL IN =  1852436224.0000                  TOTAL IN =          48.4500

          OUT:                                     OUT:
          ----                                     ----
               AG WELLS  =           0.0000                 AG WELLS  =           0.0000
      DIVERSION SEGMENTS =           0.0000        DIVERSION SEGMENTS =           0.0000
           GW IRRIGATION =  1852436224.0000             GW IRRIGATION =          48.4500
           SW IRRIGATION =           0.0000             SW IRRIGATION =           0.0000
        SYSTEM LOSSES GW =           0.0000          SYSTEM LOSSES GW =           0.0000
        SYSTEM LOSSES SW =           0.0000          SYSTEM LOSSES SW =           0.0000

               TOTAL OUT =  1852436224.0000                 TOTAL OUT =          48.4500

                IN - OUT =           0.0000                  IN - OUT =           0.0000

     PERCENT DISCREPANCY =           0.00         PERCENT DISCREPANCY =           0.00



1
  VOLUMETRIC BUDGET FOR ENTIRE MODEL AT END OF TIME STEP   30, STRESS PERIOD  45
  ------------------------------------------------------------------------------

     CUMULATIVE VOLUMES      L**3       RATES FOR THIS TIME STEP      L**3/T
     ------------------                 ------------------------

           IN:                                      IN:
           ---                                      ---
             STORAGE     =  2280940800.0000               STORAGE     =          45.5898
       CONSTANT HEAD     =           0.0000         CONSTANT HEAD     =           0.0000
     HEAD DEP BOUNDS     =    33147112.0000       HEAD DEP BOUNDS     =           0.2885
      STREAM LEAKAGE     =  1419209344.0000        STREAM LEAKAGE     =          12.3626
        UZF RECHARGE     =   222503328.0000          UZF RECHARGE     =       1.6422E-02
               GW ET     =           0.0000                 GW ET     =           0.0000
     SURFACE LEAKAGE     =           0.0000       SURFACE LEAKAGE     =           0.0000
           AG WELLS      =           0.0000             AG WELLS      =           0.0000

                TOTAL IN =  3955800576.0000                  TOTAL IN =          58.2574

          OUT:                                     OUT:
          ----                                     ----
             STORAGE     =   877616000.0000               STORAGE     =       1.5604E-02
       CONSTANT HEAD     =           0.0000         CONSTANT HEAD     =           0.0000
     HEAD DEP BOUNDS     =    33792024.0000       HEAD DEP BOUNDS     =           0.2888
      STREAM LEAKAGE     =  1174653696.0000        STREAM LEAKAGE     =           9.5031
        UZF RECHARGE     =           0.0000          UZF RECHARGE     =           0.0000
               GW ET     =    17288296.0000                 GW ET     =           0.0000
     SURFACE LEAKAGE     =           0.0000       SURFACE LEAKAGE     =           0.0000
           AG WELLS      =  1852436224.0000             AG WELLS      =          48.4500

               TOTAL OUT =  3955786240.0000                 TOTAL OUT =          58.2575

                IN - OUT =       14336.0000                  IN - OUT =      -1.6022E-04

     PERCENT DISCREPANCY =           0.00         PERCENT DISCREPANCY =          -0.00






         TIME SUMMARY AT END OF TIME STEP   30 IN STRESS PERIOD   45
                    SECONDS     MINUTES      HOURS       DAYS        YEARS
                    -----------------------------------------------------------
   TIME STEP LENGTH  87667.      1461.1      24.352      1.0147     2.77799E-03
 STRESS PERIOD TIME 2.63000E+06  43833.      730.56      30.440     8.33397E-02
         TOTAL TIME 1.15805E+08 1.93009E+06  32168.      1340.3      3.6696    
1
1
                            STRESS PERIOD NO.   46, LENGTH =   2630000.    
                            -----------------------------------------------

                              NUMBER OF TIME STEPS =    30

                               MULTIPLIER FOR DELT =     1.000

                            INITIAL TIME STEP SIZE =   87666.66    

 REUSING NON-PARAMETER GHB CELLS FROM LAST STRESS PERIOD

      2 GHB CELLS

 REUSING STREAM SEGMENT DATA FROM LAST STRESS PERIOD



            AREAL INFILTRATION RATE
 READING ON UNIT   19 WITH FORMAT: (10F4.0)            

            1           2           3           4           5           6           7           8           9          10
 ........................................................................................................................
   1   1.2000E-09   0.000       0.000       0.000       0.000       0.000       0.000       0.000       0.000       0.000    
   2   2.1000E-09  2.0000E-09  8.0000E-10  8.5000E-09   0.000       0.000       0.000       0.000       0.000       0.000    
   3   5.0000E-10  1.1000E-09  8.8000E-09  5.5000E-09   0.000       0.000       0.000       0.000       0.000       0.000    
   4   8.5000E-09  1.1000E-09  1.1000E-09  1.1000E-09  2.0000E-09   0.000       0.000       0.000       0.000       0.000    
   5   8.5000E-09  1.1000E-09  1.1000E-09  1.1000E-09  1.1000E-09   0.000       0.000       0.000       0.000       0.000    
   6   8.5000E-09  5.2000E-09  2.1000E-09  1.1000E-09  1.5000E-09   0.000       0.000       0.000       0.000       0.000    
   7   8.5000E-09  5.2000E-09  2.1000E-09  1.2000E-09  2.0000E-09   0.000       0.000       0.000       0.000       0.000    
   8   5.0000E-10  5.2000E-09  2.1000E-09  1.2000E-09  5.0000E-09   0.000       0.000       0.000       0.000       0.000    
   9   5.0000E-10  5.2000E-09  2.1000E-09  1.2000E-09  5.0000E-09   0.000       0.000       0.000       0.000       0.000    
  10   5.0000E-10  5.2000E-09  2.1000E-09  1.2000E-09  5.8000E-09   0.000       0.000       0.000       0.000       0.000    
  11   1.0000E-10  1.1000E-09  1.1000E-09  1.2000E-09  5.0000E-09   0.000       0.000       0.000       0.000       0.000    
  12   1.1000E-09  1.1000E-09  1.1000E-09  1.1000E-09  2.0000E-09   0.000       0.000       0.000       0.000       0.000    
  13   1.1000E-09  2.2000E-09  2.2000E-09  2.1000E-09  1.0000E-09   0.000       0.000       0.000       0.000       0.000    
  14   2.0000E-10  5.5000E-09  5.5000E-09  5.2000E-09  1.0000E-09   0.000       0.000       0.000       0.000       0.000    
  15    0.000      8.8000E-09  8.8000E-09   0.000       0.000       0.000       0.000       0.000       0.000       0.000    

                  ET RATE =  7.500000E-08

 USING ET EXTINCTION DEPTH FROM PREVIOUS STRESS PERIOD. CURRENT PERIOD IS:      46

 USING EXTINCTION WATER CONTENT FROM PREVIOUS STRESS PERIOD. CURRENT PERIOD IS:      46

 USING AIR ENTRY PRESSURE FROM PREVIOUS STRESS PERIOD. CURRENT PERIOD IS:      46

 USING ROOT PRESSURE HEAD FROM PREVIOUS STRESS PERIOD. CURRENT PERIOD IS:      46

 USING ROOT ACTIVITY FROM PREVIOUS STRESS PERIOD. CURRENT PERIOD IS:      46

 PROCESSING AG STRESS PERIOD DATA

 READING AG STRESS PERIOD DATA

 READING IRRIGATION WELL

 END PROCESSING AG STRESS PERIOD DATA OPTIONS
 
 SOLVING FOR HEAD 
                                                   Max.-Head-Change                         Max.-Flux-Residual
  Residual-Control   Outer-Iter.   Inner-Iter.     Column Row Layer    Maximum-Head-Change  Column Row Layer    Maximum-Flux-Residual          L2-NORM 
          0                 1           2             5    8     1       0.8324046709E-01       5    8    1         0.4517247056E+01      0.1198298635E+02
          0                 2           2             5    8     1      -0.8096887812E-02       5    8    1        -0.4517149950E+00      0.1198271528E+01
          0                 3           2             5    8     1       0.5513693996E-03       5    8    1         0.3162015632E-01      0.8387921586E-01
          0                 4           1             5    8     1      -0.2193949793E-04       5    8    1        -0.1293265749E-02      0.3430663072E-02

    ------------------------------------------------
       NWT REQUIRED            4 OUTER ITERATIONS 
       AND A TOTAL OF          7 INNER ITERATIONS.
    ------------------------------------------------

 NO OUTPUT CONTROL FOR STRESS PERIOD   46   TIME STEP    1
 
 SOLVING FOR HEAD 
                                                   Max.-Head-Change                         Max.-Flux-Residual
  Residual-Control   Outer-Iter.   Inner-Iter.     Column Row Layer    Maximum-Head-Change  Column Row Layer    Maximum-Flux-Residual          L2-NORM 
          0                 1           2             5    8     1       0.7977328572E-01       5    8    1         0.4325553014E+01      0.1162652117E+02
          0                 2           2             5    8     1      -0.7759634944E-02       5    8    1        -0.4325462380E+00      0.1162627719E+01
          0                 3           2             5    8     1       0.5284036384E-03       5    8    1         0.3027833662E-01      0.8138412042E-01
          0                 4           1             5    8     1      -0.2102566973E-04       5    8    1        -0.1238385301E-02      0.3328614268E-02

    ------------------------------------------------
       NWT REQUIRED            4 OUTER ITERATIONS 
       AND A TOTAL OF          7 INNER ITERATIONS.
    ------------------------------------------------

 NO OUTPUT CONTROL FOR STRESS PERIOD   46   TIME STEP    2
 
 SOLVING FOR HEAD 
                                                   Max.-Head-Change                         Max.-Flux-Residual
  Residual-Control   Outer-Iter.   Inner-Iter.     Column Row Layer    Maximum-Head-Change  Column Row Layer    Maximum-Flux-Residual          L2-NORM 
          0                 1           2             5    8     1       0.7651205733E-01       5    8    1         0.4145381102E+01      0.1128846224E+02
          0                 2           2             5    8     1      -0.7442414993E-02       5    8    1        -0.4145296458E+00      0.1128824266E+01
          0                 3           2             5    8     1       0.5068020509E-03       5    8    1         0.2901716894E-01      0.7901785288E-01
          0                 4           1             5    8     1      -0.2016612257E-04       5    8    1        -0.1186803489E-02      0.3231833682E-02

    ------------------------------------------------
       NWT REQUIRED            4 OUTER ITERATIONS 
       AND A TOTAL OF          7 INNER ITERATIONS.
    ------------------------------------------------

 NO OUTPUT CONTROL FOR STRESS PERIOD   46   TIME STEP    3
 
 SOLVING FOR HEAD 
                                                   Max.-Head-Change                         Max.-Flux-Residual
  Residual-Control   Outer-Iter.   Inner-Iter.     Column Row Layer    Maximum-Head-Change  Column Row Layer    Maximum-Flux-Residual          L2-NORM 
          0                 1           2             5    7     1       0.7431509034E-01       5    8    1         0.3975918487E+01      0.1096750423E+02
          0                 2           2             5    7     1      -0.7228772536E-02       5    8    1        -0.3975839393E+00      0.1096730663E+01
          0                 3           2             5    7     1       0.4922531795E-03       5    8    1         0.2783096373E-01      0.7677127656E-01
          0                 4           1             5    7     1      -0.1958721483E-04       5    8    1        -0.1138287645E-02      0.3139948372E-02

    ------------------------------------------------
       NWT REQUIRED            4 OUTER ITERATIONS 
       AND A TOTAL OF          7 INNER ITERATIONS.
    ------------------------------------------------

 NO OUTPUT CONTROL FOR STRESS PERIOD   46   TIME STEP    4
 
 SOLVING FOR HEAD 
                                                   Max.-Head-Change                         Max.-Flux-Residual
  Residual-Control   Outer-Iter.   Inner-Iter.     Column Row Layer    Maximum-Head-Change  Column Row Layer    Maximum-Flux-Residual          L2-NORM 
          0                 1           2             5    7     1       0.7272616290E-01       5    7    1         0.3862123534E+01      0.1066244859E+02
          0                 2           2             5    7     1      -0.7074222937E-02       5    7    1        -0.3862090522E+00      0.1066227076E+01
          0                 3           2             5    7     1       0.4817288298E-03       5    7    1         0.2703467769E-01      0.7463600361E-01
          0                 4           1             5    7     1      -0.1916844152E-04       5    7    1        -0.1105719715E-02      0.3052616057E-02

    ------------------------------------------------
       NWT REQUIRED            4 OUTER ITERATIONS 
       AND A TOTAL OF          7 INNER ITERATIONS.
    ------------------------------------------------

 NO OUTPUT CONTROL FOR STRESS PERIOD   46   TIME STEP    5
 
 SOLVING FOR HEAD 
                                                   Max.-Head-Change                         Max.-Flux-Residual
  Residual-Control   Outer-Iter.   Inner-Iter.     Column Row Layer    Maximum-Head-Change  Column Row Layer    Maximum-Flux-Residual          L2-NORM 
          0                 1           2             5    8     1       0.2938501109E+00       5    8    1         0.1613537053E+02      0.1882796096E+02
          0                 2           2             5    8     1       0.7666428352E-01       5    8    1         0.4237081289E+01      0.4346728792E+01
          0                 3           2             5    8     1      -0.7453887894E-02       5    8    1        -0.4234018608E+00      0.4289872261E+00
          0                 4           1             5    8     1       0.5072138200E-03       5    8    1         0.2960876764E-01      0.2975594513E-01
          0                 5           1             5    8     1      -0.2015839590E-04       5    8    1        -0.1209242718E-02      0.1210395427E-02

    ------------------------------------------------
       NWT REQUIRED            5 OUTER ITERATIONS 
       AND A TOTAL OF          8 INNER ITERATIONS.
    ------------------------------------------------

 NO OUTPUT CONTROL FOR STRESS PERIOD   46   TIME STEP    6
 
 SOLVING FOR HEAD 
                                                   Max.-Head-Change                         Max.-Flux-Residual
  Residual-Control   Outer-Iter.   Inner-Iter.     Column Row Layer    Maximum-Head-Change  Column Row Layer    Maximum-Flux-Residual          L2-NORM 
          0                 1           2             5    8     1       0.1289659897E+00       5    8    1         0.7024336405E+01      0.1190509831E+02
          0                 2           2             5    8     1      -0.1253874038E-01       5    8    1        -0.7020905404E+00      0.1190287431E+01
          0                 3           2             5    8     1       0.8532250981E-03       5    8    1         0.4911037548E-01      0.8329904131E-01
          0                 4           1             5    8     1      -0.3391004572E-04       5    8    1        -0.2006185402E-02      0.3405502039E-02

    ------------------------------------------------
       NWT REQUIRED            4 OUTER ITERATIONS 
       AND A TOTAL OF          7 INNER ITERATIONS.
    ------------------------------------------------

 NO OUTPUT CONTROL FOR STRESS PERIOD   46   TIME STEP    7
 
 SOLVING FOR HEAD 
                                                   Max.-Head-Change                         Max.-Flux-Residual
  Residual-Control   Outer-Iter.   Inner-Iter.     Column Row Layer    Maximum-Head-Change  Column Row Layer    Maximum-Flux-Residual          L2-NORM 
          0                 1           2             5    8     1       0.1231489910E+00       5    8    1         0.6701632409E+01      0.1155125522E+02
          0                 2           2             5    8     1      -0.1197315944E-01       5    8    1        -0.6698340429E+00      0.1154916701E+01
          0                 3           2             5    8     1       0.8147391705E-03       5    8    1         0.4685405772E-01      0.8082437101E-01
          0                 4           1             5    8     1      -0.3238048391E-04       5    8    1        -0.1914011483E-02      0.3304374673E-02

    ------------------------------------------------
       NWT REQUIRED            4 OUTER ITERATIONS 
       AND A TOTAL OF          7 INNER ITERATIONS.
    ------------------------------------------------

 NO OUTPUT CONTROL FOR STRESS PERIOD   46   TIME STEP    8
 
 SOLVING FOR HEAD 
                                                   Max.-Head-Change                         Max.-Flux-Residual
  Residual-Control   Outer-Iter.   Inner-Iter.     Column Row Layer    Maximum-Head-Change  Column Row Layer    Maximum-Flux-Residual          L2-NORM 
          0                 1           2             5    8     1       0.1176964872E+00       5    8    1         0.6399357938E+01      0.1121779474E+02
          0                 2           2             5    8     1      -0.1144302004E-01       5    8    1        -0.6396197732E+00      0.1121583278E+01
          0                 3           2             5    8     1       0.7786649028E-03       5    8    1         0.4474059190E-01      0.7849221773E-01
          0                 4           1             5    8     1      -0.3094677043E-04       5    8    1        -0.1827673393E-02      0.3209071129E-02

    ------------------------------------------------
       NWT REQUIRED            4 OUTER ITERATIONS 
       AND A TOTAL OF          7 INNER ITERATIONS.
    ------------------------------------------------

 NO OUTPUT CONTROL FOR STRESS PERIOD   46   TIME STEP    9
 
 SOLVING FOR HEAD 
                                                   Max.-Head-Change                         Max.-Flux-Residual
  Residual-Control   Outer-Iter.   Inner-Iter.     Column Row Layer    Maximum-Head-Change  Column Row Layer    Maximum-Flux-Residual          L2-NORM 
          0                 1           2             5    8     1       0.1125821622E+00       5    8    1         0.6116027965E+01      0.1090305308E+02
          0                 2           2             5    7     1      -0.6919860772E-02       5    7    1        -0.3808358934E+00      0.9208995987E+00
          0                 3           2             5    8     1      -0.9575211027E-03       5    8    1        -0.5497631516E-01      0.8375147122E-01
          0                 4           1             5    8     1      -0.2705125532E-03       5    8    1        -0.1531420930E-01      0.1553352822E-01
          0                 5           1             5    8     1      -0.7642159248E-04       5    8    1        -0.4334082898E-02      0.4334200563E-02

    ------------------------------------------------
       NWT REQUIRED            5 OUTER ITERATIONS 
       AND A TOTAL OF          8 INNER ITERATIONS.
    ------------------------------------------------

 NO OUTPUT CONTROL FOR STRESS PERIOD   46   TIME STEP   10
 
 SOLVING FOR HEAD 
                                                   Max.-Head-Change                         Max.-Flux-Residual
  Residual-Control   Outer-Iter.   Inner-Iter.     Column Row Layer    Maximum-Head-Change  Column Row Layer    Maximum-Flux-Residual          L2-NORM 
          0                 1           2             5    8     1       0.1074326950E+00       5    8    1         0.5830739053E+01      0.1059765185E+02
          0                 2           2             5    8     1       0.2818986628E-01       5    8    1         0.1564963089E+01      0.1797834758E+01
          0                 3           2             5    8     1       0.7396848043E-02       5    8    1         0.4073876385E+00      0.4121486609E+00
          0                 4           1             5    8     1       0.1940898171E-02       5    8    1         0.1070956807E+00      0.1071213080E+00
          0                 5           1             5    8     1       0.5092829671E-03       5    8    1         0.2809430998E-01      0.2809488413E-01
          0                 6           1             5    8     1       0.1336335977E-03       5    8    1         0.7372043975E-02      0.7372111451E-02
          0                 7           1             5    8     1       0.3506486721E-04       5    8    1         0.1934387893E-02      0.1934407474E-02

    ------------------------------------------------
       NWT REQUIRED            7 OUTER ITERATIONS 
       AND A TOTAL OF         10 INNER ITERATIONS.
    ------------------------------------------------

 NO OUTPUT CONTROL FOR STRESS PERIOD   46   TIME STEP   11
 
 SOLVING FOR HEAD 
                                                   Max.-Head-Change                         Max.-Flux-Residual
  Residual-Control   Outer-Iter.   Inner-Iter.     Column Row Layer    Maximum-Head-Change  Column Row Layer    Maximum-Flux-Residual          L2-NORM 
          0                 1           2             5    8     1       0.9992394743E-01       5    8    1         0.5413418706E+01      0.1025258933E+02
          0                 2           2             5    8     1       0.1389314497E-01       5    8    1         0.7765001932E+00      0.1166634292E+01
          0                 3           2             5    8     1      -0.1350743550E-02       5    8    1        -0.7733276676E-01      0.9862701044E-01
          0                 4           1             5    8     1       0.9191441631E-04       5    8    1         0.5390496117E-02      0.5954785764E-02

    ------------------------------------------------
       NWT REQUIRED            4 OUTER ITERATIONS 
       AND A TOTAL OF          7 INNER ITERATIONS.
    ------------------------------------------------

 NO OUTPUT CONTROL FOR STRESS PERIOD   46   TIME STEP   12
 
 SOLVING FOR HEAD 
                                                   Max.-Head-Change                         Max.-Flux-Residual
  Residual-Control   Outer-Iter.   Inner-Iter.     Column Row Layer    Maximum-Head-Change  Column Row Layer    Maximum-Flux-Residual          L2-NORM 
          0                 1           2             5    8     1       0.9455373866E-01       5    8    1         0.5115860655E+01      0.9964998871E+01
          0                 2           2             5    8     1      -0.9192892116E-02       5    8    1        -0.5113266459E+00      0.9963575136E+00
          0                 3           2             5    8     1       0.6255508935E-03       5    8    1         0.3576657366E-01      0.6973154535E-01
          0                 4           1             5    8     1      -0.2486150033E-04       5    8    1        -0.1461071669E-02      0.2851127183E-02

    ------------------------------------------------
       NWT REQUIRED            4 OUTER ITERATIONS 
       AND A TOTAL OF          7 INNER ITERATIONS.
    ------------------------------------------------

 NO OUTPUT CONTROL FOR STRESS PERIOD   46   TIME STEP   13
 
 SOLVING FOR HEAD 
                                                   Max.-Head-Change                         Max.-Flux-Residual
  Residual-Control   Outer-Iter.   Inner-Iter.     Column Row Layer    Maximum-Head-Change  Column Row Layer    Maximum-Flux-Residual          L2-NORM 
          0                 1           2             5    8     1       0.9088324883E-01       5    8    1         0.4913441655E+01      0.9719620276E+01
          0                 2           2             5    8     1      -0.8836023477E-02       5    8    1        -0.4910941801E+00      0.9718274953E+00
          0                 3           2             5    8     1       0.6012670597E-03       5    8    1         0.3435132773E-01      0.6801515709E-01
          0                 4           1             5    8     1      -0.2389637897E-04       5    8    1        -0.1403257247E-02      0.2780957785E-02

    ------------------------------------------------
       NWT REQUIRED            4 OUTER ITERATIONS 
       AND A TOTAL OF          7 INNER ITERATIONS.
    ------------------------------------------------

 NO OUTPUT CONTROL FOR STRESS PERIOD   46   TIME STEP   14
 
 SOLVING FOR HEAD 
                                                   Max.-Head-Change                         Max.-Flux-Residual
  Residual-Control   Outer-Iter.   Inner-Iter.     Column Row Layer    Maximum-Head-Change  Column Row Layer    Maximum-Flux-Residual          L2-NORM 
          0                 1           2             4    8     1       0.1561371179E+00       4    8    1         0.8370252936E+01      0.1214239666E+02
          0                 2           2             4    8     1      -0.1518041326E-01       4    8    1        -0.8366199410E+00      0.1213846989E+01
          0                 3           2             4    8     1       0.1032960728E-02       4    8    1         0.5851964210E-01      0.8492968500E-01
          0                 4           1             4    8     1      -0.4105208438E-04       4    8    1        -0.2390513112E-02      0.3470950081E-02

    ------------------------------------------------
       NWT REQUIRED            4 OUTER ITERATIONS 
       AND A TOTAL OF          7 INNER ITERATIONS.
    ------------------------------------------------

 NO OUTPUT CONTROL FOR STRESS PERIOD   46   TIME STEP   15
 
 SOLVING FOR HEAD 
                                                   Max.-Head-Change                         Max.-Flux-Residual
  Residual-Control   Outer-Iter.   Inner-Iter.     Column Row Layer    Maximum-Head-Change  Column Row Layer    Maximum-Flux-Residual          L2-NORM 
          0                 1           2             5    7     1       0.2024297691E+00       5    7    1         0.1101500673E+02      0.1565635330E+02
          0                 2           2             5    7     1      -0.1968202464E-01       5    7    1        -0.1101020252E+01      0.1564999622E+01
          0                 3           2             5    7     1       0.1339290809E-02       5    7    1         0.7701441726E-01      0.1094823097E+00
          0                 4           1             5    7     1      -0.5322757069E-04       5    7    1        -0.3146079520E-02      0.4473269360E-02

    ------------------------------------------------
       NWT REQUIRED            4 OUTER ITERATIONS 
       AND A TOTAL OF          7 INNER ITERATIONS.
    ------------------------------------------------

 NO OUTPUT CONTROL FOR STRESS PERIOD   46   TIME STEP   16
 
 SOLVING FOR HEAD 
                                                   Max.-Head-Change                         Max.-Flux-Residual
  Residual-Control   Outer-Iter.   Inner-Iter.     Column Row Layer    Maximum-Head-Change  Column Row Layer    Maximum-Flux-Residual          L2-NORM 
          0                 1           2             4    8     1       0.1423848631E+00       4    8    1         0.7619237516E+01      0.1332894314E+02
          0                 2           2             5    7     1      -0.1340459093E-01       5    7    1        -0.7588454008E+00      0.1271279467E+01
          0                 3           2             5    6     1       0.2987127832E-02       5    6    1         0.1637332079E+00      0.1938889232E+00
          0                 4           2             5    6     1       0.7841907710E-03       5    6    1         0.4328359841E-01      0.4762272804E-01
          0                 5           2             5    6     1       0.2058682226E-03       5    6    1         0.1135056558E-01      0.1251476994E-01
          0                 6           1             5    6     1       0.5404523517E-04       5    6    1         0.2979939741E-02      0.3299103997E-02

    ------------------------------------------------
       NWT REQUIRED            6 OUTER ITERATIONS 
       AND A TOTAL OF         11 INNER ITERATIONS.
    ------------------------------------------------

 NO OUTPUT CONTROL FOR STRESS PERIOD   46   TIME STEP   17
 
 SOLVING FOR HEAD 
                                                   Max.-Head-Change                         Max.-Flux-Residual
  Residual-Control   Outer-Iter.   Inner-Iter.     Column Row Layer    Maximum-Head-Change  Column Row Layer    Maximum-Flux-Residual          L2-NORM 
          0                 1           2             4    8     1       0.1373821297E+00       4    8    1         0.7345825550E+01      0.1462941405E+02
          0                 2           2             4    8     1       0.3713109312E-01       4    8    1         0.2012262528E+01      0.2933448913E+01
          0                 3           2             5    6     1       0.8872724277E-02       5    6    1         0.4883158618E+00      0.6672357265E+00
          0                 4           2             5    6     1       0.2329418422E-02       5    6    1         0.1284881778E+00      0.1394520689E+00
          0                 5           2             5    6     1       0.6115589222E-03       5    6    1         0.3372236207E-01      0.3484834985E-01
          0                 6           2             5    6     1       0.1605570142E-03       5    6    1         0.8853728792E-02      0.9118310061E-02
          0                 7           1             5    6     1       0.4215220695E-04       5    6    1         0.2324425482E-02      0.2393661318E-02

    ------------------------------------------------
       NWT REQUIRED            7 OUTER ITERATIONS 
       AND A TOTAL OF         13 INNER ITERATIONS.
    ------------------------------------------------

 NO OUTPUT CONTROL FOR STRESS PERIOD   46   TIME STEP   18
 
 SOLVING FOR HEAD 
                                                   Max.-Head-Change                         Max.-Flux-Residual
  Residual-Control   Outer-Iter.   Inner-Iter.     Column Row Layer    Maximum-Head-Change  Column Row Layer    Maximum-Flux-Residual          L2-NORM 
          0                 1           2             5    7     1       0.1342081394E+00       5    7    1         0.7179829107E+01      0.1409626138E+02
          0                 2           2             5    7     1       0.3138072881E-01       5    7    1         0.1713404920E+01      0.2341874705E+01
          0                 3           2             5    7     1       0.8352985272E-02       5    7    1         0.4562415356E+00      0.5708671368E+00
          0                 4           2             5    7     1       0.2223846676E-02       5    7    1         0.1213682797E+00      0.1514449736E+00
          0                 5           2             5    7     1       0.5921734121E-03       5    7    1         0.3232137887E-01      0.4048891158E-01
          0                 6           2             5    7     1       0.1577143438E-03       5    7    1         0.8606759231E-02      0.1082814046E-01
          0                 7           1             5    7     1       0.4201160953E-04       5    7    1         0.2292376299E-02      0.2896077266E-02

    ------------------------------------------------
       NWT REQUIRED            7 OUTER ITERATIONS 
       AND A TOTAL OF         13 INNER ITERATIONS.
    ------------------------------------------------

 NO OUTPUT CONTROL FOR STRESS PERIOD   46   TIME STEP   19
 
 SOLVING FOR HEAD 
                                                   Max.-Head-Change                         Max.-Flux-Residual
  Residual-Control   Outer-Iter.   Inner-Iter.     Column Row Layer    Maximum-Head-Change  Column Row Layer    Maximum-Flux-Residual          L2-NORM 
          0                 1           2             4    8     1       0.1282538393E+00       4    8    1         0.6848418622E+01      0.1368094341E+02
          0                 2           2             5    8     1       0.1317912993E-01       5    8    1         0.7291405082E+00      0.1449935343E+01
          0                 3           2             5    8     1      -0.1281320214E-02       5    8    1        -0.7257124598E-01      0.1215609539E+00
          0                 4           1             5    8     1       0.8719026787E-04       5    8    1         0.5055564793E-02      0.7259901172E-02

    ------------------------------------------------
       NWT REQUIRED            4 OUTER ITERATIONS 
       AND A TOTAL OF          7 INNER ITERATIONS.
    ------------------------------------------------

 NO OUTPUT CONTROL FOR STRESS PERIOD   46   TIME STEP   20
 
 SOLVING FOR HEAD 
                                                   Max.-Head-Change                         Max.-Flux-Residual
  Residual-Control   Outer-Iter.   Inner-Iter.     Column Row Layer    Maximum-Head-Change  Column Row Layer    Maximum-Flux-Residual          L2-NORM 
          0                 1           2             4    7     1       0.1657585073E+00       4    7    1         0.8797386105E+01      0.1547605543E+02
          0                 2           2             4    7     1      -0.1611569644E-01       4    7    1        -0.8793034585E+00      0.1546856751E+01
          0                 3           2             4    7     1       0.1096595504E-02       4    7    1         0.6150484505E-01      0.1082050401E+00
          0                 4           1             4    7     1      -0.4358054805E-04       4    7    1        -0.2512426536E-02      0.4420514077E-02

    ------------------------------------------------
       NWT REQUIRED            4 OUTER ITERATIONS 
       AND A TOTAL OF          7 INNER ITERATIONS.
    ------------------------------------------------

 NO OUTPUT CONTROL FOR STRESS PERIOD   46   TIME STEP   21
 
 SOLVING FOR HEAD 
                                                   Max.-Head-Change                         Max.-Flux-Residual
  Residual-Control   Outer-Iter.   Inner-Iter.     Column Row Layer    Maximum-Head-Change  Column Row Layer    Maximum-Flux-Residual          L2-NORM 
          0                 1           2             4    7     1       0.1576596062E+00       4    7    1         0.8358687702E+01      0.1502635583E+02
          0                 2           2             4    7     1       0.3334426934E-01       4    7    1         0.1836199866E+01      0.2220221878E+01
          0                 3           2             4    7     1       0.8918842718E-02       4    7    1         0.4837052419E+00      0.4916928947E+00
          0                 4           1             4    7     1       0.2385586586E-02       4    7    1         0.1298459637E+00      0.1298838459E+00
          0                 5           1             4    7     1       0.6380897237E-03       4    7    1         0.3471159067E-01      0.3471267835E-01
          0                 6           1             4    7     1       0.1706743914E-03       4    7    1         0.9285350088E-02      0.9285437971E-02
          0                 7           1             4    7     1       0.4565149155E-04       4    7    1         0.2483586029E-02      0.2483615466E-02

    ------------------------------------------------
       NWT REQUIRED            7 OUTER ITERATIONS 
       AND A TOTAL OF         10 INNER ITERATIONS.
    ------------------------------------------------

 NO OUTPUT CONTROL FOR STRESS PERIOD   46   TIME STEP   22
 
 SOLVING FOR HEAD 
                                                   Max.-Head-Change                         Max.-Flux-Residual
  Residual-Control   Outer-Iter.   Inner-Iter.     Column Row Layer    Maximum-Head-Change  Column Row Layer    Maximum-Flux-Residual          L2-NORM 
          0                 1           2             4    7     1       0.1516156867E+00       4    7    1         0.8029938768E+01      0.1469745957E+02
          0                 2           2             4    8     1       0.2476751325E-01       4    8    1         0.1347609571E+01      0.1715662284E+01
          0                 3           2             4    8     1       0.6651619929E-02       4    8    1         0.3606179956E+00      0.3684540926E+00
          0                 4           2             4    8     1       0.1786376364E-02       4    8    1         0.9690726874E-01      0.9695981951E-01
          0                 5           2             4    8     1       0.4797540805E-03       4    8    1         0.2602419651E-01      0.2602453112E-01
          0                 6           2             4    8     1       0.1288440728E-03       4    8    1         0.6989209140E-02      0.6989260261E-02
          0                 7           1             4    8     1       0.3460271941E-04       4    8    1         0.1877036641E-02      0.1877050832E-02

    ------------------------------------------------
       NWT REQUIRED            7 OUTER ITERATIONS 
       AND A TOTAL OF         13 INNER ITERATIONS.
    ------------------------------------------------

 NO OUTPUT CONTROL FOR STRESS PERIOD   46   TIME STEP   23
 
 SOLVING FOR HEAD 
                                                   Max.-Head-Change                         Max.-Flux-Residual
  Residual-Control   Outer-Iter.   Inner-Iter.     Column Row Layer    Maximum-Head-Change  Column Row Layer    Maximum-Flux-Residual          L2-NORM 
          0                 1           2             4    7     1       0.1494447126E+00       4    7    1         0.7864307473E+01      0.1557645644E+02
          0                 2           2             5    6     1       0.2312113134E-01       5    6    1         0.1272372891E+01      0.2039377978E+01
          0                 3           2             5    6     1       0.6065652659E-02       5    6    1         0.3350577533E+00      0.3649899559E+00
          0                 4           2             5    6     1       0.1591911700E-02       5    6    1         0.8778091632E-01      0.8828295513E-01
          0                 5           2             5    6     1       0.4179683254E-03       5    6    1         0.2304689586E-01      0.2305379103E-01
          0                 6           1             5    6     1       0.1097915131E-03       5    6    1         0.6051135806E-02      0.6057374351E-02
          0                 7           1             5    6     1       0.2885525117E-04       5    6    1         0.1589623789E-02      0.1594176426E-02

    ------------------------------------------------
       NWT REQUIRED            7 OUTER ITERATIONS 
       AND A TOTAL OF         12 INNER ITERATIONS.
    ------------------------------------------------

 NO OUTPUT CONTROL FOR STRESS PERIOD   46   TIME STEP   24
 
 SOLVING FOR HEAD 
                                                   Max.-Head-Change                         Max.-Flux-Residual
  Residual-Control   Outer-Iter.   Inner-Iter.     Column Row Layer    Maximum-Head-Change  Column Row Layer    Maximum-Flux-Residual          L2-NORM 
          0                 1           2             4    7     1       0.1485486355E+00       4    7    1         0.7808399832E+01      0.1568476245E+02
          0                 2           2             5    7     1       0.3141888343E-01       5    7    1         0.1730566215E+01      0.2635286778E+01
          0                 3           2             5    7     1       0.8270753702E-02       5    7    1         0.4556763384E+00      0.4667221693E+00
          0                 4           2             5    7     1       0.2168981430E-02       5    7    1         0.1197229198E+00      0.1198042402E+00
          0                 5           2             5    7     1       0.5688092036E-03       5    7    1         0.3139038796E-01      0.3139126516E-01
          0                 6           2             5    7     1       0.1491686218E-03       5    7    1         0.8231798645E-02      0.8232082741E-02
          0                 7           1             5    7     1       0.3911905568E-04       5    7    1         0.2158760759E-02      0.2158834224E-02

    ------------------------------------------------
       NWT REQUIRED            7 OUTER ITERATIONS 
       AND A TOTAL OF         13 INNER ITERATIONS.
    ------------------------------------------------

 NO OUTPUT CONTROL FOR STRESS PERIOD   46   TIME STEP   25
 
 SOLVING FOR HEAD 
                                                   Max.-Head-Change                         Max.-Flux-Residual
  Residual-Control   Outer-Iter.   Inner-Iter.     Column Row Layer    Maximum-Head-Change  Column Row Layer    Maximum-Flux-Residual          L2-NORM 
          0                 1           2             4    7     1       0.1476425551E+00       4    7    1         0.7766109495E+01      0.1538405559E+02
          0                 2           2             4    6     1      -0.1330016574E-01       4    6    1        -0.7345339325E+00      0.1228064105E+01
          0                 3           2             4    7     1      -0.1411905038E-02       4    7    1        -0.7993340824E-01      0.1166107943E+00
          0                 4           1             4    7     1      -0.4058278712E-03       4    7    1        -0.2266845194E-01      0.2295868734E-01
          0                 5           1             4    7     1      -0.1166458686E-03       4    7    1        -0.6524024067E-02      0.6524357460E-02
          0                 6           1             4    7     1      -0.3352638163E-04       4    7    1        -0.1875104710E-02      0.1875126636E-02

    ------------------------------------------------
       NWT REQUIRED            6 OUTER ITERATIONS 
       AND A TOTAL OF          9 INNER ITERATIONS.
    ------------------------------------------------

 NO OUTPUT CONTROL FOR STRESS PERIOD   46   TIME STEP   26
 
 SOLVING FOR HEAD 
                                                   Max.-Head-Change                         Max.-Flux-Residual
  Residual-Control   Outer-Iter.   Inner-Iter.     Column Row Layer    Maximum-Head-Change  Column Row Layer    Maximum-Flux-Residual          L2-NORM 
          0                 1           2             4    7     1       0.1456947285E+00       4    7    1         0.7665333079E+01      0.1512047641E+02
          0                 2           2             4    7     1       0.3897324335E-01       4    7    1         0.2146522453E+01      0.2523523878E+01
          0                 3           2             4    7     1       0.1042484534E-01       4    7    1         0.5653335255E+00      0.5844241889E+00
          0                 4           1             4    7     1       0.2788503238E-02       4    7    1         0.1517711563E+00      0.1550729667E+00
          0                 5           1             4    7     1       0.7458847152E-03       4    7    1         0.4057393161E-01      0.4142067491E-01
          0                 6           1             4    7     1       0.1995131348E-03       4    7    1         0.1085387806E-01      0.1107294078E-01
          0                 7           1             4    7     1       0.5336671430E-04       4    7    1         0.2903213091E-02      0.2959930674E-02

    ------------------------------------------------
       NWT REQUIRED            7 OUTER ITERATIONS 
       AND A TOTAL OF         10 INNER ITERATIONS.
    ------------------------------------------------

 NO OUTPUT CONTROL FOR STRESS PERIOD   46   TIME STEP   27
 
 SOLVING FOR HEAD 
                                                   Max.-Head-Change                         Max.-Flux-Residual
  Residual-Control   Outer-Iter.   Inner-Iter.     Column Row Layer    Maximum-Head-Change  Column Row Layer    Maximum-Flux-Residual          L2-NORM 
          0                 1           2             4    7     1       0.1406143867E+00       4    7    1         0.7390747837E+01      0.1484453059E+02
          0                 2           2             4    6     1       0.2218995867E-01       4    6    1         0.1224820342E+01      0.1996267414E+01
          0                 3           2             4    6     1       0.5919005442E-02       4    6    1         0.3216264845E+00      0.4348416153E+00
          0                 4           2             4    6     1       0.1578857031E-02       4    6    1         0.8611181481E-01      0.1137259529E+00
          0                 5           2             4    6     1       0.4211498433E-03       4    6    1         0.2295663185E-01      0.3009672961E-01
          0                 6           2             4    6     1       0.1123389852E-03       4    6    1         0.6123714864E-02      0.7973459527E-02
          0                 7           1             4    6     1       0.2996569030E-04       4    6    1         0.1633449084E-02      0.2112641256E-02

    ------------------------------------------------
       NWT REQUIRED            7 OUTER ITERATIONS 
       AND A TOTAL OF         13 INNER ITERATIONS.
    ------------------------------------------------

 NO OUTPUT CONTROL FOR STRESS PERIOD   46   TIME STEP   28
 
 SOLVING FOR HEAD 
                                                   Max.-Head-Change                         Max.-Flux-Residual
  Residual-Control   Outer-Iter.   Inner-Iter.     Column Row Layer    Maximum-Head-Change  Column Row Layer    Maximum-Flux-Residual          L2-NORM 
          0                 1           2             4    7     1       0.1394160551E+00       4    7    1         0.7330941217E+01      0.1457077381E+02
          0                 2           2             4    6     1       0.2439496706E-01       4    6    1         0.1347794793E+01      0.2139447265E+01
          0                 3           2             4    8     1       0.3411325020E-02       4    8    1         0.1857532649E+00      0.2583995096E+00
          0                 4           2             4    8     1       0.9161093103E-03       4    8    1         0.4962885190E-01      0.5100715680E-01
          0                 5           2             4    8     1       0.2460208181E-03       4    8    1         0.1334872995E-01      0.1335630009E-01
          0                 6           1             4    8     1       0.6606878559E-04       4    8    1         0.3583664607E-02      0.3583791276E-02

    ------------------------------------------------
       NWT REQUIRED            6 OUTER ITERATIONS 
       AND A TOTAL OF         11 INNER ITERATIONS.
    ------------------------------------------------

 NO OUTPUT CONTROL FOR STRESS PERIOD   46   TIME STEP   29
 
 SOLVING FOR HEAD 
                                                   Max.-Head-Change                         Max.-Flux-Residual
  Residual-Control   Outer-Iter.   Inner-Iter.     Column Row Layer    Maximum-Head-Change  Column Row Layer    Maximum-Flux-Residual          L2-NORM 
          0                 1           2             4    7     1       0.1385513251E+00       4    7    1         0.7289912115E+01      0.1430610089E+02
          0                 2           2             4    8     1       0.2852176046E-01       4    8    1         0.1562495418E+01      0.2042428959E+01
          0                 3           2             4    8     1       0.7659376326E-02       4    8    1         0.4144523004E+00      0.4246586651E+00
          0                 4           2             4    8     1       0.2056897711E-02       4    8    1         0.1116217393E+00      0.1116775550E+00
          0                 5           2             4    8     1       0.5523723708E-03       4    8    1         0.2996273779E-01      0.2996347027E-01
          0                 6           2             4    8     1       0.1483376149E-03       4    8    1         0.8046513020E-02      0.8046685260E-02
          0                 7           1             4    8     1       0.3983553540E-04       4    8    1         0.2160853670E-02      0.2160901993E-02

    ------------------------------------------------
       NWT REQUIRED            7 OUTER ITERATIONS 
       AND A TOTAL OF         13 INNER ITERATIONS.
    ------------------------------------------------

 NO OUTPUT CONTROL FOR STRESS PERIOD   46   TIME STEP   30



 STREAM LISTING     PERIOD     46   STEP       30

 LAYER ROW COL. STREAM  RCH.  FLOW INTO     FLOW TO   FLOW OUT OF   OVRLND.     DIRECT     STREAM       STREAM     STREAM     STREAM   STREAMBED  STREAMBED
                SEG.NO.  NO.  STRM. RCH.    AQUIFER    STRM. RCH.    RUNOFF     PRECIP       ET          HEAD       DEPTH      WIDTH   CONDCTNC.   GRADIENT

   1    1    1     1     1    1.9000E+01  2.1427E-01   1.8786E+01  0.000E+00  0.000E+00  0.000E+00  1.09413E+03  1.082E+00  1.166E+01  5.249E-02  1.361E+00
   1    2    2     1     2    1.8786E+01  3.3054E-01   1.8455E+01  0.000E+00  0.000E+00  0.000E+00  1.08914E+03  1.077E+00  1.158E+01  8.107E-02  1.359E+00
   1    3    3     1     3    1.8455E+01  2.8064E-01   1.8175E+01  0.000E+00  0.000E+00  0.000E+00  1.08349E+03  1.072E+00  1.149E+01  6.892E-02  1.357E+00
   1    3    4     1     4    1.8175E+01  2.5740E-01   1.7917E+01  0.000E+00  0.000E+00  0.000E+00  1.07848E+03  1.068E+00  1.140E+01  6.328E-02  1.356E+00
   1    4    5     2     1    1.5917E+01  3.0542E-01   1.5612E+01  0.000E+00  0.000E+00  0.000E+00  1.07285E+03  9.157E-01  1.200E+01  7.800E-02  1.305E+00
   1    5    6     2     2    1.5612E+01  2.3438E-01   1.5377E+01  0.000E+00  0.000E+00  0.000E+00  1.06742E+03  9.063E-01  1.200E+01  6.000E-02  1.302E+00
   1    6    6     2     3    1.5377E+01  2.3388E-01   1.5143E+01  0.000E+00  0.000E+00  0.000E+00  1.06269E+03  8.980E-01  1.200E+01  6.000E-02  1.299E+00
   1    7    6     2     4    1.5143E+01  2.3338E-01   1.4910E+01  0.000E+00  0.000E+00  0.000E+00  1.05797E+03  8.897E-01  1.200E+01  6.000E-02  1.297E+00
   1    8    6     2     5    1.4910E+01  2.3289E-01   1.4677E+01  0.000E+00  0.000E+00  0.000E+00  1.05324E+03  8.814E-01  1.200E+01  6.000E-02  1.294E+00
   1    3    5     3     1    2.0000E+00  2.8252E-01   1.7175E+00  0.000E+00  0.000E+00  0.000E+00  1.07555E+03  1.909E+00  9.636E+00  7.227E-02  1.955E+00
   1    3    6     3     2    1.7175E+00  2.4905E-01   1.4684E+00  0.000E+00  0.000E+00  0.000E+00  1.07264E+03  1.727E+00  8.909E+00  6.682E-02  1.864E+00
   1    3    7     3     3    1.4684E+00  1.9718E-01   1.2712E+00  0.000E+00  0.000E+00  0.000E+00  1.06987E+03  1.555E+00  8.218E+00  5.547E-02  1.777E+00
   1    4    8     3     4    1.2712E+00  2.2567E-01   1.0456E+00  0.000E+00  0.000E+00  0.000E+00  1.06682E+03  1.364E+00  7.455E+00  6.709E-02  1.682E+00
   1    5    8     3     5    1.0456E+00  1.5790E-01   8.8768E-01  0.000E+00  0.000E+00  0.000E+00  1.06362E+03  1.164E+00  6.655E+00  4.991E-02  1.582E+00
   1    6    8     3     6    8.8768E-01  5.5980E-02   8.3170E-01  0.000E+00  0.000E+00  0.000E+00  1.06158E+03  1.036E+00  6.145E+00  1.844E-02  1.518E+00
   1    5   10     4     1    1.0000E+01  9.0919E-02   9.9091E+00  0.000E+00  0.000E+00  0.000E+00  1.07836E+03  6.368E-01  1.000E+01  2.500E-02  1.212E+00
   1    5    9     4     2    9.9091E+00  1.8158E-01   9.7275E+00  0.000E+00  0.000E+00  0.000E+00  1.07154E+03  6.315E-01  1.000E+01  5.000E-02  1.211E+00
   1    6    8     4     3    9.7275E+00  1.2689E-01   9.6006E+00  0.000E+00  0.000E+00  0.000E+00  1.06381E+03  6.256E-01  1.000E+01  3.500E-02  1.209E+00
   1    6    8     5     1    1.0432E+01  2.2686E-01   1.0205E+01  0.000E+00  0.000E+00  0.000E+00  1.05868E+03  6.790E-01  1.542E+01  6.166E-02  1.226E+00
   1    7    7     5     2    1.0205E+01  2.7894E-01   9.9265E+00  0.000E+00  0.000E+00  0.000E+00  1.05417E+03  6.732E-01  1.519E+01  7.594E-02  1.224E+00
   1    8    7     5     3    9.9265E+00  1.9221E-01   9.7343E+00  0.000E+00  0.000E+00  0.000E+00  1.04992E+03  6.676E-01  1.497E+01  5.241E-02  1.223E+00
   1    8    6     5     4    9.7343E+00  1.3577E-01   9.5985E+00  0.000E+00  0.000E+00  0.000E+00  1.04691E+03  6.637E-01  1.482E+01  3.706E-02  1.221E+00
   1    9    6     6     1    2.4276E+01  2.5176E-01   2.4024E+01  0.000E+00  0.000E+00  0.000E+00  1.04392E+03  1.196E+00  1.200E+01  6.000E-02  1.399E+00
   1   10    7     6     2    2.4024E+01  2.5131E-01   2.3773E+01  0.000E+00  0.000E+00  0.000E+00  1.03937E+03  1.188E+00  1.200E+01  6.000E-02  1.396E+00
   1   11    7     6     3    2.3773E+01  2.5086E-01   2.3522E+01  0.000E+00  0.000E+00  0.000E+00  1.03482E+03  1.181E+00  1.200E+01  6.000E-02  1.394E+00
   1   12    7     6     4    2.3522E+01  2.5041E-01   2.3271E+01  0.000E+00  0.000E+00  0.000E+00  1.03026E+03  1.173E+00  1.200E+01  6.000E-02  1.391E+00
   1   13    7     6     5    2.3271E+01  1.1686E-02   2.3260E+01  0.000E+00  0.000E+00  0.000E+00  1.02708E+03  1.169E+00  1.200E+01  2.400E-02  1.623E-01
   1   14    9     7     1    1.5000E+02  1.3776E+00   1.4862E+02  0.000E+00  0.000E+00  0.000E+00  1.03987E+03  2.288E+00  5.529E+01  5.593E-01  8.210E-01
   1   13    8     7     2    1.4862E+02  1.9859E+00   1.4664E+02  0.000E+00  0.000E+00  0.000E+00  1.03478E+03  2.279E+00  5.525E+01  6.147E-01  1.077E+00
   1   13    7     7     3    1.4664E+02  1.7289E+00   1.4491E+02  0.000E+00  0.000E+00  0.000E+00  1.02969E+03  2.269E+00  5.521E+01  5.584E-01  1.032E+00
   1   13    6     8     1    1.6817E+02  1.1586E+00   1.6701E+02  0.000E+00  0.000E+00  0.000E+00  1.02481E+03  2.936E+00  4.258E+01  4.339E-01  8.901E-01
   1   13    5     8     2    1.6701E+02  3.9230E-01   1.6662E+02  0.000E+00  0.000E+00  0.000E+00  1.01856E+03  2.931E+00  4.250E+01  4.331E-01  3.019E-01
   1   13    4     8     3    1.6662E+02 -1.7133E+00   1.6833E+02  0.000E+00  0.000E+00  0.000E+00  1.01231E+03  2.936E+00  4.257E+01  4.338E+00 -1.317E-01
   1   13    3     8     4    1.6833E+02 -3.2962E+00   1.7163E+02  0.000E+00  0.000E+00  0.000E+00  1.00608E+03  2.952E+00  4.280E+01  4.362E+00 -2.519E-01
   1   13    2     8     5    1.7163E+02 -2.4988E+00   1.7412E+02  0.000E+00  0.000E+00  0.000E+00  9.99846E+02  2.971E+00  4.308E+01  4.390E+00 -1.898E-01
   1   13    1     8     6    1.7412E+02 -1.9586E+00   1.7608E+02  0.000E+00  0.000E+00  0.000E+00  9.94860E+02  2.985E+00  4.328E+01  2.647E+00 -2.467E-01





UNSATURATED ZONE PACKAGE VOLUMETRIC BUDGET FOR  TIME STEP    30 STRESS PERIOD   46
  ------------------------------------------------------------------------------



     CUMULATIVE VOLUMES      L**3       RATES FOR THIS TIME STEP      L**3/T
     ------------------                 ------------------------

           IN:                                      IN:
           ---                                      ---
        INFILTRATION =  2402934482.9658          INFILTRATION =          15.3575

          OUT:                                     OUT:
          ----                                     ----
              UZF ET =  1988004610.2162                UZF ET =          15.3575
        UZF RECHARGE =   263774041.9043          UZF RECHARGE =          30.3035

            IN - OUT =   151155830.8453              IN - OUT =         -30.3035

          STORAGE:                                 STORAGE:
          --------                                 --------
      STORAGE CHANGE =   151157335.2531        STORAGE CHANGE =         -30.3035

 PERCENT DISCREPANCY IS DIFFERENCE BETWEEN IN-OUT MINUS CHANGE IN STORAGE
 DIVIDED BY THE AVERAGE OF IN AND OUT TIMES 100

 PERCENT DISCREPANCY =          -0.00     PERCENT DISCREPANCY =           0.00






1
  VOLUMETRIC BUDGET FOR AGRICULTURAL FIELDS AT TIME STEP   30, STRESS PERIOD  46
  ------------------------------------------------------------------------------

     CUMULATIVE VOLUMES      L**3       RATES FOR THIS TIME STEP      L**3/T
     ------------------                 ------------------------

           IN:                                      IN:
           ---                                      ---
               AG WELLS  =  1881236224.0000                 AG WELLS  =          10.9500
      DIVERSION SEGMENTS =           0.0000        DIVERSION SEGMENTS =           0.0000
           GW IRRIGATION =           0.0000             GW IRRIGATION =           0.0000
           SW IRRIGATION =           0.0000             SW IRRIGATION =           0.0000
        SYSTEM LOSSES GW =           0.0000          SYSTEM LOSSES GW =           0.0000
        SYSTEM LOSSES SW =           0.0000          SYSTEM LOSSES SW =           0.0000

                TOTAL IN =  1881236224.0000                  TOTAL IN =          10.9500

          OUT:                                     OUT:
          ----                                     ----
               AG WELLS  =           0.0000                 AG WELLS  =           0.0000
      DIVERSION SEGMENTS =           0.0000        DIVERSION SEGMENTS =           0.0000
           GW IRRIGATION =  1881236224.0000             GW IRRIGATION =          10.9500
           SW IRRIGATION =           0.0000             SW IRRIGATION =           0.0000
        SYSTEM LOSSES GW =           0.0000          SYSTEM LOSSES GW =           0.0000
        SYSTEM LOSSES SW =           0.0000          SYSTEM LOSSES SW =           0.0000

               TOTAL OUT =  1881236224.0000                 TOTAL OUT =          10.9500

                IN - OUT =           0.0000                  IN - OUT =           0.0000

     PERCENT DISCREPANCY =           0.00         PERCENT DISCREPANCY =           0.00



1
  VOLUMETRIC BUDGET FOR ENTIRE MODEL AT END OF TIME STEP   30, STRESS PERIOD  46
  ------------------------------------------------------------------------------

     CUMULATIVE VOLUMES      L**3       RATES FOR THIS TIME STEP      L**3/T
     ------------------                 ------------------------

           IN:                                      IN:
           ---                                      ---
             STORAGE     =  2343541760.0000               STORAGE     =          16.8855
       CONSTANT HEAD     =           0.0000         CONSTANT HEAD     =           0.0000
     HEAD DEP BOUNDS     =    33905968.0000       HEAD DEP BOUNDS     =           0.2886
      STREAM LEAKAGE     =  1451750016.0000        STREAM LEAKAGE     =          12.3836
        UZF RECHARGE     =   263773856.0000          UZF RECHARGE     =          30.3035
               GW ET     =           0.0000                 GW ET     =           0.0000
     SURFACE LEAKAGE     =           0.0000       SURFACE LEAKAGE     =           0.0000
           AG WELLS      =           0.0000             AG WELLS      =           0.0000

                TOTAL IN =  4092971776.0000                  TOTAL IN =          59.8612

          OUT:                                     OUT:
          ----                                     ----
             STORAGE     =   960279552.0000               STORAGE     =          39.1548
       CONSTANT HEAD     =           0.0000         CONSTANT HEAD     =           0.0000
     HEAD DEP BOUNDS     =    34551624.0000       HEAD DEP BOUNDS     =           0.2888
      STREAM LEAKAGE     =  1199602816.0000        STREAM LEAKAGE     =           9.4670
        UZF RECHARGE     =           0.0000          UZF RECHARGE     =           0.0000
               GW ET     =    17288296.0000                 GW ET     =           0.0000
     SURFACE LEAKAGE     =           0.0000       SURFACE LEAKAGE     =           0.0000
           AG WELLS      =  1881236224.0000             AG WELLS      =          10.9500

               TOTAL OUT =  4092958464.0000                 TOTAL OUT =          59.8607

                IN - OUT =       13312.0000                  IN - OUT =       5.9509E-04

     PERCENT DISCREPANCY =           0.00         PERCENT DISCREPANCY =           0.00






         TIME SUMMARY AT END OF TIME STEP   30 IN STRESS PERIOD   46
                    SECONDS     MINUTES      HOURS       DAYS        YEARS
                    -----------------------------------------------------------
   TIME STEP LENGTH  87667.      1461.1      24.352      1.0147     2.77799E-03
 STRESS PERIOD TIME 2.63000E+06  43833.      730.56      30.440     8.33397E-02
         TOTAL TIME 1.18435E+08 1.97392E+06  32899.      1370.8      3.7530    
1
1
                            STRESS PERIOD NO.   47, LENGTH =   2630000.    
                            -----------------------------------------------

                              NUMBER OF TIME STEPS =    30

                               MULTIPLIER FOR DELT =     1.000

                            INITIAL TIME STEP SIZE =   87666.66    

 REUSING NON-PARAMETER GHB CELLS FROM LAST STRESS PERIOD

      2 GHB CELLS

 REUSING STREAM SEGMENT DATA FROM LAST STRESS PERIOD



            AREAL INFILTRATION RATE
 READING ON UNIT   19 WITH FORMAT: (10F4.0)            

            1           2           3           4           5           6           7           8           9          10
 ........................................................................................................................
   1   1.2000E-09   0.000       0.000       0.000       0.000       0.000       0.000       0.000       0.000       0.000    
   2   2.1000E-09  2.0000E-09  8.0000E-10  8.5000E-09   0.000       0.000       0.000       0.000       0.000       0.000    
   3   5.0000E-10  1.1000E-09  8.8000E-09  5.5000E-09   0.000       0.000       0.000       0.000       0.000       0.000    
   4   8.5000E-09  1.1000E-09  1.1000E-09  1.1000E-09  2.0000E-09   0.000       0.000       0.000       0.000       0.000    
   5   8.5000E-09  1.1000E-09  1.1000E-09  1.1000E-09  1.1000E-09   0.000       0.000       0.000       0.000       0.000    
   6   8.5000E-09  5.2000E-09  2.1000E-09  1.1000E-09  1.5000E-09   0.000       0.000       0.000       0.000       0.000    
   7   8.5000E-09  5.2000E-09  2.1000E-09  1.2000E-09  2.0000E-09   0.000       0.000       0.000       0.000       0.000    
   8   5.0000E-10  5.2000E-09  2.1000E-09  1.2000E-09  5.0000E-09   0.000       0.000       0.000       0.000       0.000    
   9   5.0000E-10  5.2000E-09  2.1000E-09  1.2000E-09  5.0000E-09   0.000       0.000       0.000       0.000       0.000    
  10   5.0000E-10  5.2000E-09  2.1000E-09  1.2000E-09  5.8000E-09   0.000       0.000       0.000       0.000       0.000    
  11   1.0000E-10  1.1000E-09  1.1000E-09  1.2000E-09  5.0000E-09   0.000       0.000       0.000       0.000       0.000    
  12   1.1000E-09  1.1000E-09  1.1000E-09  1.1000E-09  2.0000E-09   0.000       0.000       0.000       0.000       0.000    
  13   1.1000E-09  2.2000E-09  2.2000E-09  2.1000E-09  1.0000E-09   0.000       0.000       0.000       0.000       0.000    
  14   2.0000E-10  5.5000E-09  5.5000E-09  5.2000E-09  1.0000E-09   0.000       0.000       0.000       0.000       0.000    
  15    0.000      8.8000E-09  8.8000E-09   0.000       0.000       0.000       0.000       0.000       0.000       0.000    

                  ET RATE =  5.000000E-09

 USING ET EXTINCTION DEPTH FROM PREVIOUS STRESS PERIOD. CURRENT PERIOD IS:      47

 USING EXTINCTION WATER CONTENT FROM PREVIOUS STRESS PERIOD. CURRENT PERIOD IS:      47

 USING AIR ENTRY PRESSURE FROM PREVIOUS STRESS PERIOD. CURRENT PERIOD IS:      47

 USING ROOT PRESSURE HEAD FROM PREVIOUS STRESS PERIOD. CURRENT PERIOD IS:      47

 USING ROOT ACTIVITY FROM PREVIOUS STRESS PERIOD. CURRENT PERIOD IS:      47

 PROCESSING AG STRESS PERIOD DATA

 READING AG STRESS PERIOD DATA

 READING IRRIGATION WELL

 END PROCESSING AG STRESS PERIOD DATA OPTIONS
 
 SOLVING FOR HEAD 
                                                   Max.-Head-Change                         Max.-Flux-Residual
  Residual-Control   Outer-Iter.   Inner-Iter.     Column Row Layer    Maximum-Head-Change  Column Row Layer    Maximum-Flux-Residual          L2-NORM 
          0                 1           2             4    7     1       0.1727358436E+00       4    7    1         0.9077643790E+01      0.1840629913E+02
          0                 2           2             5    7     1       0.2882982458E-01       5    7    1         0.1587626832E+01      0.2159000664E+01
          0                 3           2             5    7     1       0.7648818992E-02       5    7    1         0.4179220388E+00      0.4776942720E+00
          0                 4           2             5    7     1       0.2030928818E-02       5    7    1         0.1110924290E+00      0.1259588997E+00
          0                 5           2             5    7     1       0.5396817817E-03       5    7    1         0.2949618701E-01      0.3368216938E-01
          0                 6           2             5    7     1       0.1435220098E-03       5    7    1         0.7840068690E-02      0.9021997589E-02
          0                 7           1             5    7     1       0.3819720227E-04       5    7    1         0.2085402182E-02      0.2418767133E-02

    ------------------------------------------------
       NWT REQUIRED            7 OUTER ITERATIONS 
       AND A TOTAL OF         13 INNER ITERATIONS.
    ------------------------------------------------

 NO OUTPUT CONTROL FOR STRESS PERIOD   47   TIME STEP    1
 
 SOLVING FOR HEAD 
                                                   Max.-Head-Change                         Max.-Flux-Residual
  Residual-Control   Outer-Iter.   Inner-Iter.     Column Row Layer    Maximum-Head-Change  Column Row Layer    Maximum-Flux-Residual          L2-NORM 
          0                 1           2             4    7     1       0.1707591228E+00       4    7    1         0.8976715612E+01      0.1808137442E+02
          0                 2           2             4    7     1       0.4609742253E-01       4    7    1         0.2516522817E+01      0.3397164425E+01
          0                 3           2             5    6     1       0.2194408875E-02       5    6    1         0.1211923926E+00      0.1973512681E+00
          0                 4           2             5    6     1      -0.2133463401E-03       5    6    1        -0.1214285401E-01      0.1550473180E-01
          0                 5           1             5    6     1       0.1451769363E-04       5    6    1         0.8496307710E-03      0.9264422601E-03

    ------------------------------------------------
       NWT REQUIRED            5 OUTER ITERATIONS 
       AND A TOTAL OF          9 INNER ITERATIONS.
    ------------------------------------------------

 NO OUTPUT CONTROL FOR STRESS PERIOD   47   TIME STEP    2
 
 SOLVING FOR HEAD 
                                                   Max.-Head-Change                         Max.-Flux-Residual
  Residual-Control   Outer-Iter.   Inner-Iter.     Column Row Layer    Maximum-Head-Change  Column Row Layer    Maximum-Flux-Residual          L2-NORM 
          0                 1           2             4    7     1       0.1662021491E+00       4    7    1         0.8733700237E+01      0.1696830181E+02
          0                 2           2             4    6     1       0.2034455802E-01       4    6    1         0.1131836488E+01      0.1872637552E+01
          0                 3           2             4    6     1       0.5426359086E-02       4    6    1         0.2942490456E+00      0.3123747529E+00
          0                 4           2             4    6     1       0.1447342962E-02       4    6    1         0.7896531657E-01      0.7906834652E-01
          0                 5           2             4    6     1       0.3860415243E-03       4    6    1         0.2104299926E-01      0.2104387477E-01
          0                 6           1             4    6     1       0.1029666782E-03       4    6    1         0.5612568433E-02      0.5612841030E-02
          0                 7           1             4    6     1       0.2746372211E-04       4    6    1         0.1497007387E-02      0.1497081022E-02

    ------------------------------------------------
       NWT REQUIRED            7 OUTER ITERATIONS 
       AND A TOTAL OF         12 INNER ITERATIONS.
    ------------------------------------------------

 NO OUTPUT CONTROL FOR STRESS PERIOD   47   TIME STEP    3
 
 SOLVING FOR HEAD 
                                                   Max.-Head-Change                         Max.-Flux-Residual
  Residual-Control   Outer-Iter.   Inner-Iter.     Column Row Layer    Maximum-Head-Change  Column Row Layer    Maximum-Flux-Residual          L2-NORM 
          0                 1           2             4    7     1       0.1648527664E+00       4    7    1         0.8668550690E+01      0.1664364876E+02
          0                 2           2             4    6     1       0.2329101058E-01       4    6    1         0.1292488272E+01      0.1957490864E+01
          0                 3           2             4    6     1      -0.2264432696E-02       4    6    1        -0.1285307527E+00      0.1649710079E+00
          0                 4           2             4    6     1       0.1540885346E-03       4    6    1         0.8946387567E-02      0.9918423516E-02
          0                 5           1             4    6     1      -0.6123959766E-05       4    6    1        -0.3637129321E-03      0.3683450418E-03

    ------------------------------------------------
       NWT REQUIRED            5 OUTER ITERATIONS 
       AND A TOTAL OF          9 INNER ITERATIONS.
    ------------------------------------------------

 NO OUTPUT CONTROL FOR STRESS PERIOD   47   TIME STEP    4
 
 SOLVING FOR HEAD 
                                                   Max.-Head-Change                         Max.-Flux-Residual
  Residual-Control   Outer-Iter.   Inner-Iter.     Column Row Layer    Maximum-Head-Change  Column Row Layer    Maximum-Flux-Residual          L2-NORM 
          0                 1           2             4    7     1       0.1633223953E+00       4    7    1         0.8592836317E+01      0.1633922509E+02
          0                 2           2             4    8     1       0.2837340233E-01       4    8    1         0.1552232221E+01      0.2131821304E+01
          0                 3           2             4    8     1       0.7608393725E-02       4    8    1         0.4124444229E+00      0.4212409193E+00
          0                 4           2             4    8     1       0.2043125057E-02       4    8    1         0.1108475335E+00      0.1109013502E+00
          0                 5           2             4    8     1       0.5486521481E-03       4    8    1         0.2976283850E-01      0.2976326016E-01
          0                 6           2             4    8     1       0.1473327465E-03       4    8    1         0.7992536387E-02      0.7992609796E-02
          0                 7           1             4    8     1       0.3956411877E-04       4    8    1         0.2146276485E-02      0.2146297389E-02

    ------------------------------------------------
       NWT REQUIRED            7 OUTER ITERATIONS 
       AND A TOTAL OF         13 INNER ITERATIONS.
    ------------------------------------------------

 NO OUTPUT CONTROL FOR STRESS PERIOD   47   TIME STEP    5
 
 SOLVING FOR HEAD 
                                                   Max.-Head-Change                         Max.-Flux-Residual
  Residual-Control   Outer-Iter.   Inner-Iter.     Column Row Layer    Maximum-Head-Change  Column Row Layer    Maximum-Flux-Residual          L2-NORM 
          0                 1           2             4    7     1       0.1618646194E+00       4    7    1         0.8520871923E+01      0.1603923579E+02
          0                 2           2             4    7     1       0.3960454944E-01       4    7    1         0.2147975111E+01      0.2577774305E+01
          0                 3           2             4    7     1       0.1063710905E-01       4    7    1         0.5773698365E+00      0.6012431715E+00
          0                 4           2             4    7     1       0.2857919807E-02       4    7    1         0.1549254376E+00      0.1590485736E+00
          0                 5           2             4    7     1       0.7681044860E-03       4    7    1         0.4164306868E-01      0.4285492620E-01
          0                 6           1             4    7     1       0.2065047324E-03       4    7    1         0.1119252988E-01      0.1155922103E-01
          0                 7           1             4    7     1       0.5553604330E-04       4    7    1         0.3009393921E-02      0.3119273890E-02

    ------------------------------------------------
       NWT REQUIRED            7 OUTER ITERATIONS 
       AND A TOTAL OF         12 INNER ITERATIONS.
    ------------------------------------------------

 NO OUTPUT CONTROL FOR STRESS PERIOD   47   TIME STEP    6
 
 SOLVING FOR HEAD 
                                                   Max.-Head-Change                         Max.-Flux-Residual
  Residual-Control   Outer-Iter.   Inner-Iter.     Column Row Layer    Maximum-Head-Change  Column Row Layer    Maximum-Flux-Residual          L2-NORM 
          0                 1           2             4    7     1       0.1570347825E+00       4    7    1         0.8263095144E+01      0.1572765673E+02
          0                 2           2             5    7     1       0.3214630395E-01       5    7    1         0.1781739168E+01      0.2095568667E+01
          0                 3           2             5    7     1       0.8446601106E-02       5    7    1         0.4648161219E+00      0.4756841961E+00
          0                 4           2             5    7     1       0.2220401395E-02       5    7    1         0.1223429221E+00      0.1240655257E+00
          0                 5           2             5    7     1      -0.1170516127E-03       5    7    1        -0.6745561484E-02      0.9048680633E-02
          0                 6           1             5    6     1       0.2819236249E-04       5    6    1         0.1547535015E-02      0.1618775452E-02

    ------------------------------------------------
       NWT REQUIRED            6 OUTER ITERATIONS 
       AND A TOTAL OF         11 INNER ITERATIONS.
    ------------------------------------------------

 NO OUTPUT CONTROL FOR STRESS PERIOD   47   TIME STEP    7
 
 SOLVING FOR HEAD 
                                                   Max.-Head-Change                         Max.-Flux-Residual
  Residual-Control   Outer-Iter.   Inner-Iter.     Column Row Layer    Maximum-Head-Change  Column Row Layer    Maximum-Flux-Residual          L2-NORM 
          0                 1           2             4    7     1       0.1554680889E+00       4    7    1         0.8185401778E+01      0.1544493122E+02
          0                 2           2             5    6     1       0.2840648248E-01       5    6    1         0.1563824569E+01      0.2221272532E+01
          0                 3           2             5    6     1       0.7557707324E-02       5    6    1         0.4119106870E+00      0.4966826435E+00
          0                 4           2             5    6     1       0.2011762633E-02       5    6    1         0.1098543423E+00      0.1318508236E+00
          0                 5           2             5    6     1       0.5357629716E-03       5    6    1         0.2923555352E-01      0.3544608548E-01
          0                 6           2             5    6     1       0.1427496733E-03       5    6    1         0.7787308911E-02      0.9540380696E-02
          0                 7           1             5    6     1       0.3805230481E-04       5    6    1         0.2075116173E-02      0.2568839179E-02

    ------------------------------------------------
       NWT REQUIRED            7 OUTER ITERATIONS 
       AND A TOTAL OF         13 INNER ITERATIONS.
    ------------------------------------------------

 NO OUTPUT CONTROL FOR STRESS PERIOD   47   TIME STEP    8
 
 SOLVING FOR HEAD 
                                                   Max.-Head-Change                         Max.-Flux-Residual
  Residual-Control   Outer-Iter.   Inner-Iter.     Column Row Layer    Maximum-Head-Change  Column Row Layer    Maximum-Flux-Residual          L2-NORM 
          0                 1           2             4    7     1       0.1539530244E+00       4    7    1         0.8108102951E+01      0.1517177166E+02
          0                 2           2             4    6     1       0.3052845710E-01       4    6    1         0.1674805342E+01      0.2087405334E+01
          0                 3           2             4    6     1      -0.2968086499E-02       4    6    1        -0.1670275084E+00      0.1891069297E+00
          0                 4           2             4    6     1       0.2019688289E-03       4    6    1         0.1165839213E-01      0.1226732533E-01
          0                 5           1             4    6     1      -0.8026815800E-05       4    6    1        -0.4752604343E-03      0.4805430581E-03

    ------------------------------------------------
       NWT REQUIRED            5 OUTER ITERATIONS 
       AND A TOTAL OF          9 INNER ITERATIONS.
    ------------------------------------------------

 NO OUTPUT CONTROL FOR STRESS PERIOD   47   TIME STEP    9
 
 SOLVING FOR HEAD 
                                                   Max.-Head-Change                         Max.-Flux-Residual
  Residual-Control   Outer-Iter.   Inner-Iter.     Column Row Layer    Maximum-Head-Change  Column Row Layer    Maximum-Flux-Residual          L2-NORM 
          0                 1           2             4    7     1       0.1524261794E+00       4    7    1         0.8030988308E+01      0.1492258941E+02
          0                 2           2             4    6     1      -0.1218123179E-01       4    6    1        -0.6787974217E+00      0.1333279706E+01
          0                 3           2             4    7     1       0.2052708796E-02       4    7    1         0.1098577816E+00      0.1408802433E+00
          0                 4           1             4    7     1       0.5488769655E-03       4    7    1         0.2994309254E-01      0.3014314965E-01
          0                 5           1             4    7     1       0.1467645672E-03       4    7    1         0.7984825588E-02      0.7985492217E-02
          0                 6           1             4    7     1       0.3924349192E-04       4    7    1         0.2135149602E-02      0.2135282304E-02

    ------------------------------------------------
       NWT REQUIRED            6 OUTER ITERATIONS 
       AND A TOTAL OF          9 INNER ITERATIONS.
    ------------------------------------------------

 NO OUTPUT CONTROL FOR STRESS PERIOD   47   TIME STEP   10
 
 SOLVING FOR HEAD 
                                                   Max.-Head-Change                         Max.-Flux-Residual
  Residual-Control   Outer-Iter.   Inner-Iter.     Column Row Layer    Maximum-Head-Change  Column Row Layer    Maximum-Flux-Residual          L2-NORM 
          0                 1           2             4    7     1       0.1480699186E+00       4    7    1         0.7853657657E+01      0.1355719184E+02
          0                 2           2             4    7     1       0.3959181035E-01       4    7    1         0.2175176713E+01      0.2439546930E+01
          0                 3           2             4    7     1      -0.1210990538E-02       4    7    1        -0.6922518543E-01      0.1046249652E+00
          0                 4           1             4    7     1       0.8240526032E-04       4    7    1         0.4800727043E-02      0.5792601764E-02

    ------------------------------------------------
       NWT REQUIRED            4 OUTER ITERATIONS 
       AND A TOTAL OF          7 INNER ITERATIONS.
    ------------------------------------------------

 NO OUTPUT CONTROL FOR STRESS PERIOD   47   TIME STEP   11
 
 SOLVING FOR HEAD 
                                                   Max.-Head-Change                         Max.-Flux-Residual
  Residual-Control   Outer-Iter.   Inner-Iter.     Column Row Layer    Maximum-Head-Change  Column Row Layer    Maximum-Flux-Residual          L2-NORM 
          0                 1           2             4    7     1       0.1412358947E+00       4    7    1         0.7552452887E+01      0.1203347165E+02
          0                 2           2             4    7     1      -0.1371796724E-01       4    7    1        -0.7551350094E+00      0.1202911776E+01
          0                 3           2             4    7     1       0.9203753315E-03       4    7    1         0.5198684543E-01      0.8372351294E-01
          0                 4           1             4    7     1      -0.3657739093E-04       4    7    1        -0.2123641626E-02      0.3420364128E-02

    ------------------------------------------------
       NWT REQUIRED            4 OUTER ITERATIONS 
       AND A TOTAL OF          7 INNER ITERATIONS.
    ------------------------------------------------

 NO OUTPUT CONTROL FOR STRESS PERIOD   47   TIME STEP   12
 
 SOLVING FOR HEAD 
                                                   Max.-Head-Change                         Max.-Flux-Residual
  Residual-Control   Outer-Iter.   Inner-Iter.     Column Row Layer    Maximum-Head-Change  Column Row Layer    Maximum-Flux-Residual          L2-NORM 
          0                 1           2             4    7     1       0.1373326330E+00       4    7    1         0.7338200782E+01      0.1178588967E+02
          0                 2           2             4    7     1      -0.1345578877E-01       4    7    1        -0.7435601537E+00      0.1075508278E+01
          0                 3           2             4    6     1      -0.2269195524E-02       4    6    1        -0.1286014183E+00      0.1460157053E+00
          0                 4           2             4    6     1      -0.6505534909E-03       4    6    1        -0.3640619056E-01      0.3652156787E-01
          0                 5           2             4    6     1      -0.1865025624E-03       4    6    1        -0.1045343319E-01      0.1045348412E-01
          0                 6           1             4    6     1      -0.5346583717E-04       4    6    1        -0.2996513612E-02      0.2996551429E-02

    ------------------------------------------------
       NWT REQUIRED            6 OUTER ITERATIONS 
       AND A TOTAL OF         11 INNER ITERATIONS.
    ------------------------------------------------

 NO OUTPUT CONTROL FOR STRESS PERIOD   47   TIME STEP   13
 
 SOLVING FOR HEAD 
                                                   Max.-Head-Change                         Max.-Flux-Residual
  Residual-Control   Outer-Iter.   Inner-Iter.     Column Row Layer    Maximum-Head-Change  Column Row Layer    Maximum-Flux-Residual          L2-NORM 
          0                 1           2             4    7     1       0.1332712873E+00       4    7    1         0.7126922390E+01      0.1049771975E+02
          0                 2           2             4    6     1       0.3185001961E-01       4    6    1         0.1749090339E+01      0.1937200830E+01
          0                 3           2             4    6     1       0.8494068782E-02       4    6    1         0.4622478442E+00      0.4660020208E+00
          0                 4           2             4    6     1       0.2265290647E-02       4    6    1         0.1235370779E+00      0.1235545512E+00
          0                 5           2             4    6     1       0.6041324364E-03       4    6    1         0.3293561154E-01      0.3293639519E-01
          0                 6           2             4    6     1       0.1611166658E-03       4    6    1         0.8784064554E-02      0.8784180264E-02
          0                 7           1             4    6     1       0.4296836155E-04       4    6    1         0.2342613144E-02      0.2342714315E-02

    ------------------------------------------------
       NWT REQUIRED            7 OUTER ITERATIONS 
       AND A TOTAL OF         13 INNER ITERATIONS.
    ------------------------------------------------

 NO OUTPUT CONTROL FOR STRESS PERIOD   47   TIME STEP   14
 
 SOLVING FOR HEAD 
                                                   Max.-Head-Change                         Max.-Flux-Residual
  Residual-Control   Outer-Iter.   Inner-Iter.     Column Row Layer    Maximum-Head-Change  Column Row Layer    Maximum-Flux-Residual          L2-NORM 
          0                 1           2             4    7     1       0.1303064158E+00       4    7    1         0.6967823656E+01      0.1019890044E+02
          0                 2           2             4    6     1       0.1257730796E-01       4    6    1         0.6984295444E+00      0.1077579092E+01
          0                 3           2             4    6     1      -0.1222807291E-02       4    6    1        -0.6944261516E-01      0.9029828561E-01
          0                 4           1             4    6     1       0.8320869555E-04       4    6    1         0.4832720221E-02      0.5391022879E-02

    ------------------------------------------------
       NWT REQUIRED            4 OUTER ITERATIONS 
       AND A TOTAL OF          7 INNER ITERATIONS.
    ------------------------------------------------

 NO OUTPUT CONTROL FOR STRESS PERIOD   47   TIME STEP   15
 
 SOLVING FOR HEAD 
                                                   Max.-Head-Change                         Max.-Flux-Residual
  Residual-Control   Outer-Iter.   Inner-Iter.     Column Row Layer    Maximum-Head-Change  Column Row Layer    Maximum-Flux-Residual          L2-NORM 
          0                 1           2             4    6     1       0.1079963250E+00       4    6    1         0.5825599945E+01      0.7610913201E+01
          0                 2           2             4    6     1      -0.1049991996E-01       4    6    1        -0.5822768657E+00      0.7607708252E+00
          0                 3           2             4    6     1       0.7144785892E-03       4    6    1         0.4072922495E-01      0.5322131425E-01
          0                 4           1             4    6     1      -0.2839514688E-04       4    6    1        -0.1663791480E-02      0.2174544022E-02

    ------------------------------------------------
       NWT REQUIRED            4 OUTER ITERATIONS 
       AND A TOTAL OF          7 INNER ITERATIONS.
    ------------------------------------------------

 NO OUTPUT CONTROL FOR STRESS PERIOD   47   TIME STEP   16
 
 SOLVING FOR HEAD 
                                                   Max.-Head-Change                         Max.-Flux-Residual
  Residual-Control   Outer-Iter.   Inner-Iter.     Column Row Layer    Maximum-Head-Change  Column Row Layer    Maximum-Flux-Residual          L2-NORM 
          0                 1           2             4    6     1       0.1041076710E+00       4    6    1         0.5611219889E+01      0.7435222903E+01
          0                 2           2             4    6     1      -0.1012183283E-01       4    6    1        -0.5608483282E+00      0.7432094682E+00
          0                 3           2             4    6     1       0.6887510377E-03       4    6    1         0.3923032002E-01      0.5199288968E-01
          0                 4           1             4    6     1      -0.2737265180E-04       4    6    1        -0.1602559471E-02      0.2124356413E-02

    ------------------------------------------------
       NWT REQUIRED            4 OUTER ITERATIONS 
       AND A TOTAL OF          7 INNER ITERATIONS.
    ------------------------------------------------

 NO OUTPUT CONTROL FOR STRESS PERIOD   47   TIME STEP   17
 
 SOLVING FOR HEAD 
                                                   Max.-Head-Change                         Max.-Flux-Residual
  Residual-Control   Outer-Iter.   Inner-Iter.     Column Row Layer    Maximum-Head-Change  Column Row Layer    Maximum-Flux-Residual          L2-NORM 
          0                 1           2             4    6     1       0.1004404431E+00       4    6    1         0.5409184928E+01      0.7272104605E+01
          0                 2           2             4    6     1      -0.9765274938E-02       4    6    1        -0.5406537792E+00      0.7269048062E+00
          0                 3           2             4    6     1       0.6644884844E-03       4    6    1         0.3781773192E-01      0.5085244499E-01
          0                 4           1             4    6     1      -0.2640838067E-04       4    6    1        -0.1544853661E-02      0.2077920463E-02

    ------------------------------------------------
       NWT REQUIRED            4 OUTER ITERATIONS 
       AND A TOTAL OF          7 INNER ITERATIONS.
    ------------------------------------------------

 NO OUTPUT CONTROL FOR STRESS PERIOD   47   TIME STEP   18
 
 SOLVING FOR HEAD 
                                                   Max.-Head-Change                         Max.-Flux-Residual
  Residual-Control   Outer-Iter.   Inner-Iter.     Column Row Layer    Maximum-Head-Change  Column Row Layer    Maximum-Flux-Residual          L2-NORM 
          0                 1           2             4    6     1       0.9697948928E-01       4    6    1         0.5218644938E+01      0.7120244306E+01
          0                 2           2             4    6     1      -0.9428773053E-02       4    6    1        -0.5216082430E+00      0.7117255258E+00
          0                 3           2             4    6     1       0.6415906800E-03       4    6    1         0.3648551658E-01      0.4979059646E-01
          0                 4           1             4    6     1      -0.2549834972E-04       4    6    1        -0.1490431201E-02      0.2034401875E-02

    ------------------------------------------------
       NWT REQUIRED            4 OUTER ITERATIONS 
       AND A TOTAL OF          7 INNER ITERATIONS.
    ------------------------------------------------

 NO OUTPUT CONTROL FOR STRESS PERIOD   47   TIME STEP   19
 
 SOLVING FOR HEAD 
                                                   Max.-Head-Change                         Max.-Flux-Residual
  Residual-Control   Outer-Iter.   Inner-Iter.     Column Row Layer    Maximum-Head-Change  Column Row Layer    Maximum-Flux-Residual          L2-NORM 
          0                 1           2             4    7     1       0.4319589496E-01       4    7    1         0.2296001039E+01      0.4851299808E+01
          0                 2           2             4    7     1      -0.4199577490E-02       4    7    1        -0.2294801933E+00      0.4849728352E+00
          0                 3           2             4    7     1       0.2857621755E-03       4    7    1         0.1605161529E-01      0.3393272753E-01
          0                 4           1             4    7     1      -0.1135664448E-04       4    7    1        -0.6556973153E-03      0.1386798483E-02

    ------------------------------------------------
       NWT REQUIRED            4 OUTER ITERATIONS 
       AND A TOTAL OF          7 INNER ITERATIONS.
    ------------------------------------------------

 NO OUTPUT CONTROL FOR STRESS PERIOD   47   TIME STEP   20
 
 SOLVING FOR HEAD 
                                                   Max.-Head-Change                         Max.-Flux-Residual
  Residual-Control   Outer-Iter.   Inner-Iter.     Column Row Layer    Maximum-Head-Change  Column Row Layer    Maximum-Flux-Residual          L2-NORM 
          0                 1           2             4    7     1       0.4225556997E-01       4    7    1         0.2244347011E+01      0.4777154003E+01
          0                 2           2             4    7     1      -0.4108154873E-02       4    7    1        -0.2243173174E+00      0.4775594030E+00
          0                 3           2             4    7     1       0.2795411525E-03       4    7    1         0.1569047596E-01      0.3341392580E-01
          0                 4           1             4    7     1      -0.1110940185E-04       4    7    1        -0.6409444288E-03      0.1365601956E-02

    ------------------------------------------------
       NWT REQUIRED            4 OUTER ITERATIONS 
       AND A TOTAL OF          7 INNER ITERATIONS.
    ------------------------------------------------

 NO OUTPUT CONTROL FOR STRESS PERIOD   47   TIME STEP   21
 
 SOLVING FOR HEAD 
                                                   Max.-Head-Change                         Max.-Flux-Residual
  Residual-Control   Outer-Iter.   Inner-Iter.     Column Row Layer    Maximum-Head-Change  Column Row Layer    Maximum-Flux-Residual          L2-NORM 
          0                 1           2             4    7     1       0.4136503320E-01       4    7    1         0.2195483584E+01      0.4706680232E+01
          0                 2           2             4    7     1      -0.4021572946E-02       4    7    1        -0.2194333685E+00      0.4705131379E+00
          0                 3           2             4    7     1       0.2736495285E-03       4    7    1         0.1534884765E-01      0.3292078279E-01
          0                 4           1             4    7     1      -0.1087525074E-04       4    7    1        -0.6269886107E-03      0.1345425260E-02

    ------------------------------------------------
       NWT REQUIRED            4 OUTER ITERATIONS 
       AND A TOTAL OF          7 INNER ITERATIONS.
    ------------------------------------------------

 NO OUTPUT CONTROL FOR STRESS PERIOD   47   TIME STEP   22
 
 SOLVING FOR HEAD 
                                                   Max.-Head-Change                         Max.-Flux-Residual
  Residual-Control   Outer-Iter.   Inner-Iter.     Column Row Layer    Maximum-Head-Change  Column Row Layer    Maximum-Flux-Residual          L2-NORM 
          0                 1           2             4    7     1       0.4052083873E-01       4    7    1         0.2149216119E+01      0.4639557930E+01
          0                 2           2             4    7     1      -0.3939496681E-02       4    7    1        -0.2148088921E+00      0.4638020171E+00
          0                 3           2             4    7     1       0.2680645047E-03       4    7    1         0.1502536949E-01      0.3245112825E-01
          0                 4           1             4    7     1      -0.1065328530E-04       4    7    1        -0.6137742582E-03      0.1326234085E-02

    ------------------------------------------------
       NWT REQUIRED            4 OUTER ITERATIONS 
       AND A TOTAL OF          7 INNER ITERATIONS.
    ------------------------------------------------

 NO OUTPUT CONTROL FOR STRESS PERIOD   47   TIME STEP   23
 
 SOLVING FOR HEAD 
                                                   Max.-Head-Change                         Max.-Flux-Residual
  Residual-Control   Outer-Iter.   Inner-Iter.     Column Row Layer    Maximum-Head-Change  Column Row Layer    Maximum-Flux-Residual          L2-NORM 
          0                 1           2             4    7     1       0.3971968829E-01       4    7    1         0.2105358692E+01      0.4575484755E+01
          0                 2           2             4    7     1      -0.3861605404E-02       4    7    1        -0.2104253048E+00      0.4573957250E+00
          0                 3           2             4    7     1       0.2627642597E-03       4    7    1         0.1471874154E-01      0.3200279810E-01
          0                 4           1             4    7     1      -0.1044263794E-04       4    7    1        -0.6012482611E-03      0.1307908055E-02

    ------------------------------------------------
       NWT REQUIRED            4 OUTER ITERATIONS 
       AND A TOTAL OF          7 INNER ITERATIONS.
    ------------------------------------------------

 NO OUTPUT CONTROL FOR STRESS PERIOD   47   TIME STEP   24
 
 SOLVING FOR HEAD 
                                                   Max.-Head-Change                         Max.-Flux-Residual
  Residual-Control   Outer-Iter.   Inner-Iter.     Column Row Layer    Maximum-Head-Change  Column Row Layer    Maximum-Flux-Residual          L2-NORM 
          0                 1           2             4    7     1       0.3895828804E-01       4    7    1         0.2063725770E+01      0.4514197422E+01
          0                 2           2             4    7     1      -0.3787578868E-02       4    7    1        -0.2062640621E+00      0.4512681037E+00
          0                 3           2             4    7     1       0.2577270021E-03       4    7    1         0.1442766665E-01      0.3157396798E-01
          0                 4           1             4    7     1      -0.1024244302E-04       4    7    1        -0.5893576385E-03      0.1290382027E-02

    ------------------------------------------------
       NWT REQUIRED            4 OUTER ITERATIONS 
       AND A TOTAL OF          7 INNER ITERATIONS.
    ------------------------------------------------

 NO OUTPUT CONTROL FOR STRESS PERIOD   47   TIME STEP   25
 
 SOLVING FOR HEAD 
                                                   Max.-Head-Change                         Max.-Flux-Residual
  Residual-Control   Outer-Iter.   Inner-Iter.     Column Row Layer    Maximum-Head-Change  Column Row Layer    Maximum-Flux-Residual          L2-NORM 
          0                 1           2             4    7     1       0.3823412725E-01       4    7    1         0.2024175620E+01      0.4455454165E+01
          0                 2           2             4    7     1      -0.3717172968E-02       4    7    1        -0.2023109977E+00      0.4453948251E+00
          0                 3           2             4    7     1       0.2529361203E-03       4    7    1         0.1415115385E-01      0.3116294334E-01
          0                 4           1             4    7     1      -0.1005203969E-04       4    7    1        -0.5780618958E-03      0.1273568057E-02

    ------------------------------------------------
       NWT REQUIRED            4 OUTER ITERATIONS 
       AND A TOTAL OF          7 INNER ITERATIONS.
    ------------------------------------------------

 NO OUTPUT CONTROL FOR STRESS PERIOD   47   TIME STEP   26
 
 SOLVING FOR HEAD 
                                                   Max.-Head-Change                         Max.-Flux-Residual
  Residual-Control   Outer-Iter.   Inner-Iter.     Column Row Layer    Maximum-Head-Change  Column Row Layer    Maximum-Flux-Residual          L2-NORM 
          0                 1           2             4    7     1       0.3754423935E-01       4    7    1         0.1986541752E+01      0.4399036192E+01
          0                 2           2             4    7     1      -0.3650099279E-02       4    7    1        -0.1985494705E+00      0.4397546861E+00
          0                 3           2             4    7     1       0.2483719880E-03       4    7    1         0.1388803909E-01      0.3076820055E-01
          0                 4           1             4    7     1      -0.9870648561E-05       4    7    1        -0.5673135108E-03      0.1257427332E-02

    ------------------------------------------------
       NWT REQUIRED            4 OUTER ITERATIONS 
       AND A TOTAL OF          7 INNER ITERATIONS.
    ------------------------------------------------

 NO OUTPUT CONTROL FOR STRESS PERIOD   47   TIME STEP   27
 
 SOLVING FOR HEAD 
                                                   Max.-Head-Change                         Max.-Flux-Residual
  Residual-Control   Outer-Iter.   Inner-Iter.     Column Row Layer    Maximum-Head-Change  Column Row Layer    Maximum-Flux-Residual          L2-NORM 
          0                 1           2             4    7     1       0.3688641673E-01       4    7    1         0.1950699406E+01      0.4344759815E+01
          0                 2           2             4    7     1      -0.3586143163E-02       4    7    1        -0.1949670105E+00      0.4343274914E+00
          0                 3           2             4    7     1       0.2440199993E-03       4    7    1         0.1363745012E-01      0.3038844917E-01
          0                 4           1             4    7     1      -0.9697688338E-05       4    7    1        -0.5570767976E-03      0.1241906915E-02

    ------------------------------------------------
       NWT REQUIRED            4 OUTER ITERATIONS 
       AND A TOTAL OF          7 INNER ITERATIONS.
    ------------------------------------------------

 NO OUTPUT CONTROL FOR STRESS PERIOD   47   TIME STEP   28
 
 SOLVING FOR HEAD 
                                                   Max.-Head-Change                         Max.-Flux-Residual
  Residual-Control   Outer-Iter.   Inner-Iter.     Column Row Layer    Maximum-Head-Change  Column Row Layer    Maximum-Flux-Residual          L2-NORM 
          0                 1           2             4    7     1       0.3625850087E-01       4    7    1         0.1916526859E+01      0.4292453207E+01
          0                 2           2             4    7     1      -0.3525094757E-02       4    7    1        -0.1915514512E+00      0.4290979144E+00
          0                 3           2             4    7     1       0.2398658736E-03       4    7    1         0.1339853583E-01      0.3002253011E-01
          0                 4           1             4    7     1      -0.9532592711E-05       4    7    1        -0.5473170436E-03      0.1226960970E-02

    ------------------------------------------------
       NWT REQUIRED            4 OUTER ITERATIONS 
       AND A TOTAL OF          7 INNER ITERATIONS.
    ------------------------------------------------

 NO OUTPUT CONTROL FOR STRESS PERIOD   47   TIME STEP   29
 
 SOLVING FOR HEAD 
                                                   Max.-Head-Change                         Max.-Flux-Residual
  Residual-Control   Outer-Iter.   Inner-Iter.     Column Row Layer    Maximum-Head-Change  Column Row Layer    Maximum-Flux-Residual          L2-NORM 
          0                 1           2             4    7     1       0.3565823757E-01       4    7    1         0.1883897667E+01      0.4241962005E+01
          0                 2           2             4    7     1      -0.3466734894E-02       4    7    1        -0.1882901540E+00      0.4240497959E+00
          0                 3           2             4    7     1       0.2358946962E-03       4    7    1         0.1317041218E-01      0.2966922027E-01
          0                 4           1             4    7     1      -0.9374767737E-05       4    7    1        -0.5379980782E-03      0.1212498911E-02

    ------------------------------------------------
       NWT REQUIRED            4 OUTER ITERATIONS 
       AND A TOTAL OF          7 INNER ITERATIONS.
    ------------------------------------------------

 NO OUTPUT CONTROL FOR STRESS PERIOD   47   TIME STEP   30



 STREAM LISTING     PERIOD     47   STEP       30

 LAYER ROW COL. STREAM  RCH.  FLOW INTO     FLOW TO   FLOW OUT OF   OVRLND.     DIRECT     STREAM       STREAM     STREAM     STREAM   STREAMBED  STREAMBED
                SEG.NO.  NO.  STRM. RCH.    AQUIFER    STRM. RCH.    RUNOFF     PRECIP       ET          HEAD       DEPTH      WIDTH   CONDCTNC.   GRADIENT

   1    1    1     1     1    1.9000E+01  2.1427E-01   1.8786E+01  0.000E+00  0.000E+00  0.000E+00  1.09413E+03  1.082E+00  1.166E+01  5.249E-02  1.361E+00
   1    2    2     1     2    1.8786E+01  3.3054E-01   1.8455E+01  0.000E+00  0.000E+00  0.000E+00  1.08914E+03  1.077E+00  1.158E+01  8.107E-02  1.359E+00
   1    3    3     1     3    1.8455E+01  2.8064E-01   1.8175E+01  0.000E+00  0.000E+00  0.000E+00  1.08349E+03  1.072E+00  1.149E+01  6.892E-02  1.357E+00
   1    3    4     1     4    1.8175E+01  2.5740E-01   1.7917E+01  0.000E+00  0.000E+00  0.000E+00  1.07848E+03  1.068E+00  1.140E+01  6.328E-02  1.356E+00
   1    4    5     2     1    1.5917E+01  3.0542E-01   1.5612E+01  0.000E+00  0.000E+00  0.000E+00  1.07285E+03  9.157E-01  1.200E+01  7.800E-02  1.305E+00
   1    5    6     2     2    1.5612E+01  2.3438E-01   1.5377E+01  0.000E+00  0.000E+00  0.000E+00  1.06742E+03  9.063E-01  1.200E+01  6.000E-02  1.302E+00
   1    6    6     2     3    1.5377E+01  2.3388E-01   1.5143E+01  0.000E+00  0.000E+00  0.000E+00  1.06269E+03  8.980E-01  1.200E+01  6.000E-02  1.299E+00
   1    7    6     2     4    1.5143E+01  2.3338E-01   1.4910E+01  0.000E+00  0.000E+00  0.000E+00  1.05797E+03  8.897E-01  1.200E+01  6.000E-02  1.297E+00
   1    8    6     2     5    1.4910E+01  2.3289E-01   1.4677E+01  0.000E+00  0.000E+00  0.000E+00  1.05324E+03  8.814E-01  1.200E+01  6.000E-02  1.294E+00
   1    3    5     3     1    2.0000E+00  2.8252E-01   1.7175E+00  0.000E+00  0.000E+00  0.000E+00  1.07555E+03  1.909E+00  9.636E+00  7.227E-02  1.955E+00
   1    3    6     3     2    1.7175E+00  2.4905E-01   1.4684E+00  0.000E+00  0.000E+00  0.000E+00  1.07264E+03  1.727E+00  8.909E+00  6.682E-02  1.864E+00
   1    3    7     3     3    1.4684E+00  1.9718E-01   1.2712E+00  0.000E+00  0.000E+00  0.000E+00  1.06987E+03  1.555E+00  8.218E+00  5.547E-02  1.777E+00
   1    4    8     3     4    1.2712E+00  2.2567E-01   1.0456E+00  0.000E+00  0.000E+00  0.000E+00  1.06682E+03  1.364E+00  7.455E+00  6.709E-02  1.682E+00
   1    5    8     3     5    1.0456E+00  1.5790E-01   8.8768E-01  0.000E+00  0.000E+00  0.000E+00  1.06362E+03  1.164E+00  6.655E+00  4.991E-02  1.582E+00
   1    6    8     3     6    8.8768E-01  5.5980E-02   8.3170E-01  0.000E+00  0.000E+00  0.000E+00  1.06158E+03  1.036E+00  6.145E+00  1.844E-02  1.518E+00
   1    5   10     4     1    1.0000E+01  9.0919E-02   9.9091E+00  0.000E+00  0.000E+00  0.000E+00  1.07836E+03  6.368E-01  1.000E+01  2.500E-02  1.212E+00
   1    5    9     4     2    9.9091E+00  1.8158E-01   9.7275E+00  0.000E+00  0.000E+00  0.000E+00  1.07154E+03  6.315E-01  1.000E+01  5.000E-02  1.211E+00
   1    6    8     4     3    9.7275E+00  1.2689E-01   9.6006E+00  0.000E+00  0.000E+00  0.000E+00  1.06381E+03  6.256E-01  1.000E+01  3.500E-02  1.209E+00
   1    6    8     5     1    1.0432E+01  2.2686E-01   1.0205E+01  0.000E+00  0.000E+00  0.000E+00  1.05868E+03  6.790E-01  1.542E+01  6.166E-02  1.226E+00
   1    7    7     5     2    1.0205E+01  2.7894E-01   9.9265E+00  0.000E+00  0.000E+00  0.000E+00  1.05417E+03  6.732E-01  1.519E+01  7.594E-02  1.224E+00
   1    8    7     5     3    9.9265E+00  1.9221E-01   9.7343E+00  0.000E+00  0.000E+00  0.000E+00  1.04992E+03  6.676E-01  1.497E+01  5.241E-02  1.223E+00
   1    8    6     5     4    9.7343E+00  1.3577E-01   9.5985E+00  0.000E+00  0.000E+00  0.000E+00  1.04691E+03  6.637E-01  1.482E+01  3.706E-02  1.221E+00
   1    9    6     6     1    2.4276E+01  2.5176E-01   2.4024E+01  0.000E+00  0.000E+00  0.000E+00  1.04392E+03  1.196E+00  1.200E+01  6.000E-02  1.399E+00
   1   10    7     6     2    2.4024E+01  2.5131E-01   2.3773E+01  0.000E+00  0.000E+00  0.000E+00  1.03937E+03  1.188E+00  1.200E+01  6.000E-02  1.396E+00
   1   11    7     6     3    2.3773E+01  2.5086E-01   2.3522E+01  0.000E+00  0.000E+00  0.000E+00  1.03482E+03  1.181E+00  1.200E+01  6.000E-02  1.394E+00
   1   12    7     6     4    2.3522E+01  2.5041E-01   2.3271E+01  0.000E+00  0.000E+00  0.000E+00  1.03026E+03  1.173E+00  1.200E+01  6.000E-02  1.391E+00
   1   13    7     6     5    2.3271E+01  1.1957E-02   2.3259E+01  0.000E+00  0.000E+00  0.000E+00  1.02708E+03  1.169E+00  1.200E+01  2.400E-02  1.661E-01
   1   14    9     7     1    1.5000E+02  1.3795E+00   1.4862E+02  0.000E+00  0.000E+00  0.000E+00  1.03987E+03  2.288E+00  5.529E+01  5.593E-01  8.222E-01
   1   13    8     7     2    1.4862E+02  1.9897E+00   1.4663E+02  0.000E+00  0.000E+00  0.000E+00  1.03478E+03  2.279E+00  5.525E+01  6.147E-01  1.079E+00
   1   13    7     7     3    1.4663E+02  1.7352E+00   1.4490E+02  0.000E+00  0.000E+00  0.000E+00  1.02969E+03  2.269E+00  5.521E+01  5.584E-01  1.036E+00
   1   13    6     8     1    1.6816E+02  1.1664E+00   1.6699E+02  0.000E+00  0.000E+00  0.000E+00  1.02481E+03  2.936E+00  4.258E+01  4.339E-01  8.961E-01
   1   13    5     8     2    1.6699E+02  4.0201E-01   1.6659E+02  0.000E+00  0.000E+00  0.000E+00  1.01856E+03  2.931E+00  4.250E+01  4.331E-01  3.094E-01
   1   13    4     8     3    1.6659E+02 -1.6733E+00   1.6826E+02  0.000E+00  0.000E+00  0.000E+00  1.01231E+03  2.935E+00  4.256E+01  4.337E+00 -1.286E-01
   1   13    3     8     4    1.6826E+02 -3.2819E+00   1.7154E+02  0.000E+00  0.000E+00  0.000E+00  1.00608E+03  2.952E+00  4.280E+01  4.361E+00 -2.508E-01
   1   13    2     8     5    1.7154E+02 -2.4965E+00   1.7404E+02  0.000E+00  0.000E+00  0.000E+00  9.99845E+02  2.970E+00  4.307E+01  4.389E+00 -1.896E-01
   1   13    1     8     6    1.7404E+02 -1.9582E+00   1.7600E+02  0.000E+00  0.000E+00  0.000E+00  9.94860E+02  2.985E+00  4.328E+01  2.646E+00 -2.467E-01





UNSATURATED ZONE PACKAGE VOLUMETRIC BUDGET FOR  TIME STEP    30 STRESS PERIOD   47
  ------------------------------------------------------------------------------



     CUMULATIVE VOLUMES      L**3       RATES FOR THIS TIME STEP      L**3/T
     ------------------                 ------------------------

           IN:                                      IN:
           ---                                      ---
        INFILTRATION =  2414526207.5239          INFILTRATION =           4.4075

          OUT:                                     OUT:
          ----                                     ----
              UZF ET =  1997946009.9442                UZF ET =           3.7800
        UZF RECHARGE =   296232031.2032          UZF RECHARGE =           0.0163

            IN - OUT =   120348166.3766              IN - OUT =           0.6112

          STORAGE:                                 STORAGE:
          --------                                 --------
      STORAGE CHANGE =   120349670.7609        STORAGE CHANGE =           0.6112

 PERCENT DISCREPANCY IS DIFFERENCE BETWEEN IN-OUT MINUS CHANGE IN STORAGE
 DIVIDED BY THE AVERAGE OF IN AND OUT TIMES 100

 PERCENT DISCREPANCY =          -0.00     PERCENT DISCREPANCY =           0.00






1
  VOLUMETRIC BUDGET FOR AGRICULTURAL FIELDS AT TIME STEP   30, STRESS PERIOD  47
  ------------------------------------------------------------------------------

     CUMULATIVE VOLUMES      L**3       RATES FOR THIS TIME STEP      L**3/T
     ------------------                 ------------------------

           IN:                                      IN:
           ---                                      ---
               AG WELLS  =  1881236224.0000                 AG WELLS  =           0.0000
      DIVERSION SEGMENTS =           0.0000        DIVERSION SEGMENTS =           0.0000
           GW IRRIGATION =           0.0000             GW IRRIGATION =           0.0000
           SW IRRIGATION =           0.0000             SW IRRIGATION =           0.0000
        SYSTEM LOSSES GW =           0.0000          SYSTEM LOSSES GW =           0.0000
        SYSTEM LOSSES SW =           0.0000          SYSTEM LOSSES SW =           0.0000

                TOTAL IN =  1881236224.0000                  TOTAL IN =           0.0000

          OUT:                                     OUT:
          ----                                     ----
               AG WELLS  =           0.0000                 AG WELLS  =           0.0000
      DIVERSION SEGMENTS =           0.0000        DIVERSION SEGMENTS =           0.0000
           GW IRRIGATION =  1881236224.0000             GW IRRIGATION =           0.0000
           SW IRRIGATION =           0.0000             SW IRRIGATION =           0.0000
        SYSTEM LOSSES GW =           0.0000          SYSTEM LOSSES GW =           0.0000
        SYSTEM LOSSES SW =           0.0000          SYSTEM LOSSES SW =           0.0000

               TOTAL OUT =  1881236224.0000                 TOTAL OUT =           0.0000

                IN - OUT =           0.0000                  IN - OUT =           0.0000

     PERCENT DISCREPANCY =           0.00         PERCENT DISCREPANCY =           0.00



1
  VOLUMETRIC BUDGET FOR ENTIRE MODEL AT END OF TIME STEP   30, STRESS PERIOD  47
  ------------------------------------------------------------------------------

     CUMULATIVE VOLUMES      L**3       RATES FOR THIS TIME STEP      L**3/T
     ------------------                 ------------------------

           IN:                                      IN:
           ---                                      ---
             STORAGE     =  2378535168.0000               STORAGE     =          10.8077
       CONSTANT HEAD     =           0.0000         CONSTANT HEAD     =           0.0000
     HEAD DEP BOUNDS     =    34665176.0000       HEAD DEP BOUNDS     =           0.2887
      STREAM LEAKAGE     =  1484357504.0000        STREAM LEAKAGE     =          12.4133
        UZF RECHARGE     =   296231968.0000          UZF RECHARGE     =       1.6286E-02
               GW ET     =           0.0000                 GW ET     =           0.0000
     SURFACE LEAKAGE     =           0.0000       SURFACE LEAKAGE     =           0.0000
           AG WELLS      =           0.0000             AG WELLS      =           0.0000

                TOTAL IN =  4193789952.0000                  TOTAL IN =          23.5260

          OUT:                                     OUT:
          ----                                     ----
             STORAGE     =  1035512896.0000               STORAGE     =          13.8274
       CONSTANT HEAD     =           0.0000         CONSTANT HEAD     =           0.0000
     HEAD DEP BOUNDS     =    35311160.0000       HEAD DEP BOUNDS     =           0.2888
      STREAM LEAKAGE     =  1224427008.0000        STREAM LEAKAGE     =           9.4098
        UZF RECHARGE     =           0.0000          UZF RECHARGE     =           0.0000
               GW ET     =    17288296.0000                 GW ET     =           0.0000
     SURFACE LEAKAGE     =           0.0000       SURFACE LEAKAGE     =           0.0000
           AG WELLS      =  1881236224.0000             AG WELLS      =           0.0000

               TOTAL OUT =  4193775360.0000                 TOTAL OUT =          23.5260

                IN - OUT =       14592.0000                  IN - OUT =       1.7166E-05

     PERCENT DISCREPANCY =           0.00         PERCENT DISCREPANCY =           0.00






         TIME SUMMARY AT END OF TIME STEP   30 IN STRESS PERIOD   47
                    SECONDS     MINUTES      HOURS       DAYS        YEARS
                    -----------------------------------------------------------
   TIME STEP LENGTH  87667.      1461.1      24.352      1.0147     2.77799E-03
 STRESS PERIOD TIME 2.63000E+06  43833.      730.56      30.440     8.33397E-02
         TOTAL TIME 1.21065E+08 2.01775E+06  33629.      1401.2      3.8363    
1
1
                            STRESS PERIOD NO.   48, LENGTH =   2630000.    
                            -----------------------------------------------

                              NUMBER OF TIME STEPS =    30

                               MULTIPLIER FOR DELT =     1.000

                            INITIAL TIME STEP SIZE =   87666.66    

 REUSING NON-PARAMETER GHB CELLS FROM LAST STRESS PERIOD

      2 GHB CELLS

 REUSING STREAM SEGMENT DATA FROM LAST STRESS PERIOD



            AREAL INFILTRATION RATE
 READING ON UNIT   19 WITH FORMAT: (10F4.0)            

            1           2           3           4           5           6           7           8           9          10
 ........................................................................................................................
   1   1.2000E-09   0.000       0.000       0.000       0.000       0.000       0.000       0.000       0.000       0.000    
   2   2.1000E-09  2.0000E-09  8.0000E-10  8.5000E-09   0.000       0.000       0.000       0.000       0.000       0.000    
   3   5.0000E-10  1.1000E-09  8.8000E-09  5.5000E-09   0.000       0.000       0.000       0.000       0.000       0.000    
   4   8.5000E-09  1.1000E-09  1.1000E-09  1.1000E-09  2.0000E-09   0.000       0.000       0.000       0.000       0.000    
   5   8.5000E-09  1.1000E-09  1.1000E-09  1.1000E-09  1.1000E-09   0.000       0.000       0.000       0.000       0.000    
   6   8.5000E-09  5.2000E-09  2.1000E-09  1.1000E-09  1.5000E-09   0.000       0.000       0.000       0.000       0.000    
   7   8.5000E-09  5.2000E-09  2.1000E-09  1.2000E-09  2.0000E-09   0.000       0.000       0.000       0.000       0.000    
   8   5.0000E-10  5.2000E-09  2.1000E-09  1.2000E-09  5.0000E-09   0.000       0.000       0.000       0.000       0.000    
   9   5.0000E-10  5.2000E-09  2.1000E-09  1.2000E-09  5.0000E-09   0.000       0.000       0.000       0.000       0.000    
  10   5.0000E-10  5.2000E-09  2.1000E-09  1.2000E-09  5.8000E-09   0.000       0.000       0.000       0.000       0.000    
  11   1.0000E-10  1.1000E-09  1.1000E-09  1.2000E-09  5.0000E-09   0.000       0.000       0.000       0.000       0.000    
  12   1.1000E-09  1.1000E-09  1.1000E-09  1.1000E-09  2.0000E-09   0.000       0.000       0.000       0.000       0.000    
  13   1.1000E-09  2.2000E-09  2.2000E-09  2.1000E-09  1.0000E-09   0.000       0.000       0.000       0.000       0.000    
  14   2.0000E-10  5.5000E-09  5.5000E-09  5.2000E-09  1.0000E-09   0.000       0.000       0.000       0.000       0.000    
  15    0.000      8.8000E-09  8.8000E-09   0.000       0.000       0.000       0.000       0.000       0.000       0.000    

                  ET RATE =  5.000000E-10

 USING ET EXTINCTION DEPTH FROM PREVIOUS STRESS PERIOD. CURRENT PERIOD IS:      48

 USING EXTINCTION WATER CONTENT FROM PREVIOUS STRESS PERIOD. CURRENT PERIOD IS:      48

 USING AIR ENTRY PRESSURE FROM PREVIOUS STRESS PERIOD. CURRENT PERIOD IS:      48

 USING ROOT PRESSURE HEAD FROM PREVIOUS STRESS PERIOD. CURRENT PERIOD IS:      48

 USING ROOT ACTIVITY FROM PREVIOUS STRESS PERIOD. CURRENT PERIOD IS:      48

 PROCESSING AG STRESS PERIOD DATA

 READING AG STRESS PERIOD DATA

 READING IRRIGATION WELL

 END PROCESSING AG STRESS PERIOD DATA OPTIONS
 
 SOLVING FOR HEAD 
                                                   Max.-Head-Change                         Max.-Flux-Residual
  Residual-Control   Outer-Iter.   Inner-Iter.     Column Row Layer    Maximum-Head-Change  Column Row Layer    Maximum-Flux-Residual          L2-NORM 
          0                 1           2             4    7     1       0.3508380934E-01       4    7    1         0.1852709480E+01      0.4193137619E+01
          0                 2           2             4    7     1      -0.3410886867E-02       4    7    1        -0.1851728891E+00      0.4191683792E+00
          0                 3           2             4    7     1       0.2320944436E-03       4    7    1         0.1295236359E-01      0.2932761856E-01
          0                 4           1             4    7     1      -0.9223735983E-05       4    7    1        -0.5290907097E-03      0.1198539371E-02

    ------------------------------------------------
       NWT REQUIRED            4 OUTER ITERATIONS 
       AND A TOTAL OF          7 INNER ITERATIONS.
    ------------------------------------------------

 NO OUTPUT CONTROL FOR STRESS PERIOD   48   TIME STEP    1
 
 SOLVING FOR HEAD 
                                                   Max.-Head-Change                         Max.-Flux-Residual
  Residual-Control   Outer-Iter.   Inner-Iter.     Column Row Layer    Maximum-Head-Change  Column Row Layer    Maximum-Flux-Residual          L2-NORM 
          0                 1           2             4    7     1       0.3453354543E-01       4    7    1         0.1822868068E+01      0.4145867826E+01
          0                 2           2             4    7     1      -0.3357388236E-02       4    7    1        -0.1821902377E+00      0.4144424493E+00
          0                 3           2             4    7     1       0.2284540612E-03       4    7    1         0.1274373117E-01      0.2899691525E-01
          0                 4           1             4    7     1      -0.9079058006E-05       4    7    1        -0.5205680066E-03      0.1185019159E-02

    ------------------------------------------------
       NWT REQUIRED            4 OUTER ITERATIONS 
       AND A TOTAL OF          7 INNER ITERATIONS.
    ------------------------------------------------

 NO OUTPUT CONTROL FOR STRESS PERIOD   48   TIME STEP    2
 
 SOLVING FOR HEAD 
                                                   Max.-Head-Change                         Max.-Flux-Residual
  Residual-Control   Outer-Iter.   Inner-Iter.     Column Row Layer    Maximum-Head-Change  Column Row Layer    Maximum-Flux-Residual          L2-NORM 
          0                 1           2             4    7     1       0.3400564558E-01       4    7    1         0.1794272270E+01      0.4100043840E+01
          0                 2           2             4    7     1      -0.3306063968E-02       4    7    1        -0.1793320885E+00      0.4098610905E+00
          0                 3           2             4    7     1       0.2249616394E-03       4    7    1         0.1254380771E-01      0.2867632302E-01
          0                 4           1             4    7     1      -0.8940260977E-05       4    7    1        -0.5124010881E-03      0.1171915655E-02

    ------------------------------------------------
       NWT REQUIRED            4 OUTER ITERATIONS 
       AND A TOTAL OF          7 INNER ITERATIONS.
    ------------------------------------------------

 NO OUTPUT CONTROL FOR STRESS PERIOD   48   TIME STEP    3
 
 SOLVING FOR HEAD 
                                                   Max.-Head-Change                         Max.-Flux-Residual
  Residual-Control   Outer-Iter.   Inner-Iter.     Column Row Layer    Maximum-Head-Change  Column Row Layer    Maximum-Flux-Residual          L2-NORM 
          0                 1           2             4    7     1       0.3349883642E-01       4    7    1         0.1766850546E+01      0.4055560392E+01
          0                 2           2             4    7     1      -0.3256790258E-02       4    7    1        -0.1765912911E+00      0.4054137917E+00
          0                 3           2             4    7     1       0.2216087521E-03       4    7    1         0.1235209294E-01      0.2836511798E-01
          0                 4           1             4    7     1      -0.8807009414E-05       4    7    1        -0.5045695066E-03      0.1159191786E-02

    ------------------------------------------------
       NWT REQUIRED            4 OUTER ITERATIONS 
       AND A TOTAL OF          7 INNER ITERATIONS.
    ------------------------------------------------

 NO OUTPUT CONTROL FOR STRESS PERIOD   48   TIME STEP    4
 
 SOLVING FOR HEAD 
                                                   Max.-Head-Change                         Max.-Flux-Residual
  Residual-Control   Outer-Iter.   Inner-Iter.     Column Row Layer    Maximum-Head-Change  Column Row Layer    Maximum-Flux-Residual          L2-NORM 
          0                 1           2             4    7     1       0.3301155781E-01       4    7    1         0.1740515074E+01      0.4012323052E+01
          0                 2           2             4    7     1      -0.3209415420E-02       4    7    1        -0.1739590672E+00      0.4010910955E+00
          0                 3           2             4    7     1       0.2183850786E-03       4    7    1         0.1216797289E-01      0.2806262431E-01
          0                 4           1             4    7     1      -0.8678893117E-05       4    7    1        -0.4970481805E-03      0.1146829169E-02

    ------------------------------------------------
       NWT REQUIRED            4 OUTER ITERATIONS 
       AND A TOTAL OF          7 INNER ITERATIONS.
    ------------------------------------------------

 NO OUTPUT CONTROL FOR STRESS PERIOD   48   TIME STEP    5
 
 SOLVING FOR HEAD 
                                                   Max.-Head-Change                         Max.-Flux-Residual
  Residual-Control   Outer-Iter.   Inner-Iter.     Column Row Layer    Maximum-Head-Change  Column Row Layer    Maximum-Flux-Residual          L2-NORM 
          0                 1           2             4    7     1       0.3254249649E-01       4    7    1         0.1715192229E+01      0.3970255547E+01
          0                 2           2             4    7     1      -0.3163811771E-02       4    7    1        -0.1714280577E+00      0.3968853851E+00
          0                 3           2             4    7     1       0.2152819298E-03       4    7    1         0.1199093278E-01      0.2776833463E-01
          0                 4           1             4    7     1      -0.8555566705E-05       4    7    1        -0.4898160644E-03      0.1134806215E-02

    ------------------------------------------------
       NWT REQUIRED            4 OUTER ITERATIONS 
       AND A TOTAL OF          7 INNER ITERATIONS.
    ------------------------------------------------

 NO OUTPUT CONTROL FOR STRESS PERIOD   48   TIME STEP    6
 
 SOLVING FOR HEAD 
                                                   Max.-Head-Change                         Max.-Flux-Residual
  Residual-Control   Outer-Iter.   Inner-Iter.     Column Row Layer    Maximum-Head-Change  Column Row Layer    Maximum-Flux-Residual          L2-NORM 
          0                 1           2             4    7     1       0.3209070301E-01       4    7    1         0.1690828458E+01      0.3929281095E+01
          0                 2           2             4    7     1      -0.3119887001E-02       4    7    1        -0.1689929101E+00      0.3927889889E+00
          0                 3           2             4    7     1       0.2122930243E-03       4    7    1         0.1182059818E-01      0.2748168974E-01
          0                 4           1             4    7     1      -0.8436781155E-05       4    7    1        -0.4828578888E-03      0.1123094695E-02

    ------------------------------------------------
       NWT REQUIRED            4 OUTER ITERATIONS 
       AND A TOTAL OF          7 INNER ITERATIONS.
    ------------------------------------------------

 NO OUTPUT CONTROL FOR STRESS PERIOD   48   TIME STEP    7
 
 SOLVING FOR HEAD 
                                                   Max.-Head-Change                         Max.-Flux-Residual
  Residual-Control   Outer-Iter.   Inner-Iter.     Column Row Layer    Maximum-Head-Change  Column Row Layer    Maximum-Flux-Residual          L2-NORM 
          0                 1           2             4    7     1       0.3165490907E-01       4    7    1         0.1667352728E+01      0.3889331232E+01
          0                 2           2             4    7     1      -0.3077517794E-02       4    7    1        -0.1666465242E+00      0.3887950496E+00
          0                 3           2             4    7     1       0.2094099704E-03       4    7    1         0.1165647242E-01      0.2720222495E-01
          0                 4           1             4    7     1      -0.8322202023E-05       4    7    1        -0.4761533462E-03      0.1111679307E-02

    ------------------------------------------------
       NWT REQUIRED            4 OUTER ITERATIONS 
       AND A TOTAL OF          7 INNER ITERATIONS.
    ------------------------------------------------

 NO OUTPUT CONTROL FOR STRESS PERIOD   48   TIME STEP    8
 
 SOLVING FOR HEAD 
                                                   Max.-Head-Change                         Max.-Flux-Residual
  Residual-Control   Outer-Iter.   Inner-Iter.     Column Row Layer    Maximum-Head-Change  Column Row Layer    Maximum-Flux-Residual          L2-NORM 
          0                 1           2             4    7     1       0.3123420957E-01       4    7    1         0.1644713818E+01      0.3850350926E+01
          0                 2           2             4    7     1      -0.3036616153E-02       4    7    1        -0.1643837803E+00      0.3848980097E+00
          0                 3           2             4    7     1       0.2066267805E-03       4    7    1         0.1149819740E-01      0.2692948194E-01
          0                 4           1             4    7     1      -0.8211592145E-05       4    7    1        -0.4696878150E-03      0.1100514088E-02

    ------------------------------------------------
       NWT REQUIRED            4 OUTER ITERATIONS 
       AND A TOTAL OF          7 INNER ITERATIONS.
    ------------------------------------------------

 NO OUTPUT CONTROL FOR STRESS PERIOD   48   TIME STEP    9
 
 SOLVING FOR HEAD 
                                                   Max.-Head-Change                         Max.-Flux-Residual
  Residual-Control   Outer-Iter.   Inner-Iter.     Column Row Layer    Maximum-Head-Change  Column Row Layer    Maximum-Flux-Residual          L2-NORM 
          0                 1           2             4    7     1       0.3082750439E-01       4    7    1         0.1622850259E+01      0.3812289707E+01
          0                 2           2             4    7     1      -0.2997075117E-02       4    7    1        -0.1621985345E+00      0.3810929875E+00
          0                 3           2             4    7     1       0.2039361765E-03       4    7    1         0.1134534336E-01      0.2666327850E-01
          0                 4           1             4    7     1      -0.8104662320E-05       4    7    1        -0.4634437632E-03      0.1089625461E-02

    ------------------------------------------------
       NWT REQUIRED            4 OUTER ITERATIONS 
       AND A TOTAL OF          7 INNER ITERATIONS.
    ------------------------------------------------

 NO OUTPUT CONTROL FOR STRESS PERIOD   48   TIME STEP   10
 
 SOLVING FOR HEAD 
                                                   Max.-Head-Change                         Max.-Flux-Residual
  Residual-Control   Outer-Iter.   Inner-Iter.     Column Row Layer    Maximum-Head-Change  Column Row Layer    Maximum-Flux-Residual          L2-NORM 
          0                 1           2             4    7     1       0.3043403324E-01       4    7    1         0.1601719553E+01      0.3775083329E+01
          0                 2           2             4    7     1      -0.2958820765E-02       4    7    1        -0.1600865390E+00      0.3773734005E+00
          0                 3           2             4    7     1       0.2013331270E-03       4    7    1         0.1119761311E-01      0.2640301486E-01
          0                 4           1             4    7     1      -0.8001211422E-05       4    7    1        -0.4574089967E-03      0.1078995118E-02

    ------------------------------------------------
       NWT REQUIRED            4 OUTER ITERATIONS 
       AND A TOTAL OF          7 INNER ITERATIONS.
    ------------------------------------------------

 NO OUTPUT CONTROL FOR STRESS PERIOD   48   TIME STEP   11
 
 SOLVING FOR HEAD 
                                                   Max.-Head-Change                         Max.-Flux-Residual
  Residual-Control   Outer-Iter.   Inner-Iter.     Column Row Layer    Maximum-Head-Change  Column Row Layer    Maximum-Flux-Residual          L2-NORM 
          0                 1           2             4    7     1       0.3005297033E-01       4    7    1         0.1581275009E+01      0.3738697923E+01
          0                 2           2             4    7     1      -0.2921772809E-02       4    7    1        -0.1580431269E+00      0.3737359093E+00
          0                 3           2             4    7     1       0.1988121695E-03       4    7    1         0.1105468025E-01      0.2614849285E-01
          0                 4           1             4    7     1      -0.7901023815E-05       4    7    1        -0.4515702210E-03      0.1068590285E-02

    ------------------------------------------------
       NWT REQUIRED            4 OUTER ITERATIONS 
       AND A TOTAL OF          7 INNER ITERATIONS.
    ------------------------------------------------

 NO OUTPUT CONTROL FOR STRESS PERIOD   48   TIME STEP   12
 
 SOLVING FOR HEAD 
                                                   Max.-Head-Change                         Max.-Flux-Residual
  Residual-Control   Outer-Iter.   Inner-Iter.     Column Row Layer    Maximum-Head-Change  Column Row Layer    Maximum-Flux-Residual          L2-NORM 
          0                 1           2             4    7     1       0.2968368037E-01       4    7    1         0.1561481084E+01      0.3703086939E+01
          0                 2           2             4    7     1      -0.2885869482E-02       4    7    1        -0.1560647453E+00      0.3701758629E+00
          0                 3           2             4    7     1       0.1963691014E-03       4    7    1         0.1091629627E-01      0.2589940160E-01
          0                 4           1             4    7     1      -0.7803931989E-05       4    7    1        -0.4459172917E-03      0.1058425004E-02

    ------------------------------------------------
       NWT REQUIRED            4 OUTER ITERATIONS 
       AND A TOTAL OF          7 INNER ITERATIONS.
    ------------------------------------------------

 NO OUTPUT CONTROL FOR STRESS PERIOD   48   TIME STEP   13
 
 SOLVING FOR HEAD 
                                                   Max.-Head-Change                         Max.-Flux-Residual
  Residual-Control   Outer-Iter.   Inner-Iter.     Column Row Layer    Maximum-Head-Change  Column Row Layer    Maximum-Flux-Residual          L2-NORM 
          0                 1           2             4    7     1       0.2932531475E-01       4    7    1         0.1542290294E+01      0.3668219758E+01
          0                 2           2             4    7     1      -0.2851028276E-02       4    7    1        -0.1541466484E+00      0.3666902102E+00
          0                 3           2             4    7     1       0.1939983066E-03       4    7    1         0.1078212913E-01      0.2565552696E-01
          0                 4           1             4    7     1      -0.7709711791E-05       4    7    1        -0.4404365991E-03      0.1048441308E-02

    ------------------------------------------------
       NWT REQUIRED            4 OUTER ITERATIONS 
       AND A TOTAL OF          7 INNER ITERATIONS.
    ------------------------------------------------

 NO OUTPUT CONTROL FOR STRESS PERIOD   48   TIME STEP   14
 
 SOLVING FOR HEAD 
                                                   Max.-Head-Change                         Max.-Flux-Residual
  Residual-Control   Outer-Iter.   Inner-Iter.     Column Row Layer    Maximum-Head-Change  Column Row Layer    Maximum-Flux-Residual          L2-NORM 
          0                 1           2             4    7     1       0.2897735206E-01       4    7    1         0.1523673186E+01      0.3634049858E+01
          0                 2           2             4    7     1      -0.2817198498E-02       4    7    1        -0.1522858919E+00      0.3632742522E+00
          0                 3           2             4    7     1       0.1916963369E-03       4    7    1         0.1065197296E-01      0.2541650744E-01
          0                 4           1             4    7     1      -0.7618226910E-05       4    7    1        -0.4351197504E-03      0.1038674600E-02

    ------------------------------------------------
       NWT REQUIRED            4 OUTER ITERATIONS 
       AND A TOTAL OF          7 INNER ITERATIONS.
    ------------------------------------------------

 NO OUTPUT CONTROL FOR STRESS PERIOD   48   TIME STEP   15
 
 SOLVING FOR HEAD 
                                                   Max.-Head-Change                         Max.-Flux-Residual
  Residual-Control   Outer-Iter.   Inner-Iter.     Column Row Layer    Maximum-Head-Change  Column Row Layer    Maximum-Flux-Residual          L2-NORM 
          0                 1           2             4    7     1       0.2863917427E-01       4    7    1         0.1505595452E+01      0.3600556043E+01
          0                 2           2             4    7     1      -0.2784320057E-02       4    7    1        -0.1504790470E+00      0.3599259084E+00
          0                 3           2             4    7     1       0.1894591027E-03       4    7    1         0.1052558784E-01      0.2518220728E-01
          0                 4           1             4    7     1      -0.7529315591E-05       4    7    1        -0.4299569803E-03      0.1029100409E-02

    ------------------------------------------------
       NWT REQUIRED            4 OUTER ITERATIONS 
       AND A TOTAL OF          7 INNER ITERATIONS.
    ------------------------------------------------

 NO OUTPUT CONTROL FOR STRESS PERIOD   48   TIME STEP   16
 
 SOLVING FOR HEAD 
                                                   Max.-Head-Change                         Max.-Flux-Residual
  Residual-Control   Outer-Iter.   Inner-Iter.     Column Row Layer    Maximum-Head-Change  Column Row Layer    Maximum-Flux-Residual          L2-NORM 
          0                 1           2             4    7     1       0.2831007983E-01       4    7    1         0.1488017775E+01      0.3567694945E+01
          0                 2           2             4    7     1      -0.2752324744E-02       4    7    1        -0.1487221835E+00      0.3566408277E+00
          0                 3           2             4    7     1       0.1872819624E-03       4    7    1         0.1040269888E-01      0.2495235854E-01
          0                 4           1             4    7     1      -0.7442792019E-05       4    7    1        -0.4249370220E-03      0.1019711434E-02

    ------------------------------------------------
       NWT REQUIRED            4 OUTER ITERATIONS 
       AND A TOTAL OF          7 INNER ITERATIONS.
    ------------------------------------------------

 NO OUTPUT CONTROL FOR STRESS PERIOD   48   TIME STEP   17
 
 SOLVING FOR HEAD 
                                                   Max.-Head-Change                         Max.-Flux-Residual
  Residual-Control   Outer-Iter.   Inner-Iter.     Column Row Layer    Maximum-Head-Change  Column Row Layer    Maximum-Flux-Residual          L2-NORM 
          0                 1           2             4    7     1       0.2798981601E-01       4    7    1         0.1470925602E+01      0.3535459283E+01
          0                 2           2             4    7     1      -0.2721187989E-02       4    7    1        -0.1470138469E+00      0.3534182986E+00
          0                 3           2             4    7     1       0.1851632446E-03       4    7    1         0.1028320436E-01      0.2472688512E-01
          0                 4           1             4    7     1      -0.7358590570E-05       4    7    1        -0.4200557228E-03      0.1010500262E-02

    ------------------------------------------------
       NWT REQUIRED            4 OUTER ITERATIONS 
       AND A TOTAL OF          7 INNER ITERATIONS.
    ------------------------------------------------

 NO OUTPUT CONTROL FOR STRESS PERIOD   48   TIME STEP   18
 
 SOLVING FOR HEAD 
                                                   Max.-Head-Change                         Max.-Flux-Residual
  Residual-Control   Outer-Iter.   Inner-Iter.     Column Row Layer    Maximum-Head-Change  Column Row Layer    Maximum-Flux-Residual          L2-NORM 
          0                 1           2             4    7     1       0.2767775336E-01       4    7    1         0.1454284007E+01      0.3503814599E+01
          0                 2           2             4    7     1      -0.2690848590E-02       4    7    1        -0.1453505463E+00      0.3502548691E+00
          0                 3           2             4    7     1       0.1830987844E-03       4    7    1         0.1016686007E-01      0.2450554426E-01
          0                 4           1             4    7     1      -0.7276545461E-05       4    7    1        -0.4153031300E-03      0.1001446446E-02

    ------------------------------------------------
       NWT REQUIRED            4 OUTER ITERATIONS 
       AND A TOTAL OF          7 INNER ITERATIONS.
    ------------------------------------------------

 NO OUTPUT CONTROL FOR STRESS PERIOD   48   TIME STEP   19
 
 SOLVING FOR HEAD 
                                                   Max.-Head-Change                         Max.-Flux-Residual
  Residual-Control   Outer-Iter.   Inner-Iter.     Column Row Layer    Maximum-Head-Change  Column Row Layer    Maximum-Flux-Residual          L2-NORM 
          0                 1           2             4    7     1       0.2737343950E-01       4    7    1         0.1438067628E+01      0.3472736254E+01
          0                 2           2             4    7     1      -0.2661262566E-02       4    7    1        -0.1437297467E+00      0.3471480739E+00
          0                 3           2             4    7     1       0.1810855888E-03       4    7    1         0.1005348868E-01      0.2428816898E-01
          0                 4           1             4    7     1      -0.7196537766E-05       4    7    1        -0.4106719769E-03      0.9925605684E-03

    ------------------------------------------------
       NWT REQUIRED            4 OUTER ITERATIONS 
       AND A TOTAL OF          7 INNER ITERATIONS.
    ------------------------------------------------

 NO OUTPUT CONTROL FOR STRESS PERIOD   48   TIME STEP   20
 
 SOLVING FOR HEAD 
                                                   Max.-Head-Change                         Max.-Flux-Residual
  Residual-Control   Outer-Iter.   Inner-Iter.     Column Row Layer    Maximum-Head-Change  Column Row Layer    Maximum-Flux-Residual          L2-NORM 
          0                 1           2             4    7     1       0.2707658583E-01       4    7    1         0.1422260286E+01      0.3442211304E+01
          0                 2           2             4    7     1      -0.2632401856E-02       4    7    1        -0.1421498308E+00      0.3440966087E+00
          0                 3           2             4    7     1       0.1791217484E-03       4    7    1         0.9942977085E-02      0.2407466822E-01
          0                 4           1             4    7     1      -0.7118491614E-05       4    7    1        -0.4061576390E-03      0.9838849329E-03

    ------------------------------------------------
       NWT REQUIRED            4 OUTER ITERATIONS 
       AND A TOTAL OF          7 INNER ITERATIONS.
    ------------------------------------------------

 NO OUTPUT CONTROL FOR STRESS PERIOD   48   TIME STEP   21
 
 SOLVING FOR HEAD 
                                                   Max.-Head-Change                         Max.-Flux-Residual
  Residual-Control   Outer-Iter.   Inner-Iter.     Column Row Layer    Maximum-Head-Change  Column Row Layer    Maximum-Flux-Residual          L2-NORM 
          0                 1           2             4    7     1       0.2678666078E-01       4    7    1         0.1406832467E+01      0.3412205843E+01
          0                 2           2             4    7     1      -0.2604214780E-02       4    7    1        -0.1406078486E+00      0.3410970947E+00
          0                 3           2             4    7     1       0.1772037467E-03       4    7    1         0.9835118920E-02      0.2386481508E-01
          0                 4           1             4    7     1      -0.7042267357E-05       4    7    1        -0.4017517042E-03      0.9752783684E-03

    ------------------------------------------------
       NWT REQUIRED            4 OUTER ITERATIONS 
       AND A TOTAL OF          7 INNER ITERATIONS.
    ------------------------------------------------

 NO OUTPUT CONTROL FOR STRESS PERIOD   48   TIME STEP   22
 
 SOLVING FOR HEAD 
                                                   Max.-Head-Change                         Max.-Flux-Residual
  Residual-Control   Outer-Iter.   Inner-Iter.     Column Row Layer    Maximum-Head-Change  Column Row Layer    Maximum-Flux-Residual          L2-NORM 
          0                 1           2             4    7     1       0.2650343530E-01       4    7    1         0.1391771159E+01      0.3382709655E+01
          0                 2           2             4    7     1      -0.2576679064E-02       4    7    1        -0.1391024998E+00      0.3381484219E+00
          0                 3           2             4    7     1       0.1753300677E-03       4    7    1         0.9729823208E-02      0.2365851116E-01
          0                 4           1             4    7     1      -0.6967803861E-05       3   13    1        -0.4222203461E-03      0.1055059745E-02

    ------------------------------------------------
       NWT REQUIRED            4 OUTER ITERATIONS 
       AND A TOTAL OF          7 INNER ITERATIONS.
    ------------------------------------------------

 NO OUTPUT CONTROL FOR STRESS PERIOD   48   TIME STEP   23
 
 SOLVING FOR HEAD 
                                                   Max.-Head-Change                         Max.-Flux-Residual
  Residual-Control   Outer-Iter.   Inner-Iter.     Column Row Layer    Maximum-Head-Change  Column Row Layer    Maximum-Flux-Residual          L2-NORM 
          0                 1           2             4    7     1       0.2622656732E-01       4    7    1         0.1377057213E+01      0.3353715693E+01
          0                 2           2             4    7     1      -0.2549761454E-02       4    7    1        -0.1376318701E+00      0.3352501278E+00
          0                 3           2             4    7     1       0.1734984483E-03       4    7    1         0.9626956049E-02      0.2345572416E-01
          0                 4           1             4    7     1      -0.6895012709E-05       4    7    1        -0.3932483785E-03      0.9585378945E-03

    ------------------------------------------------
       NWT REQUIRED            4 OUTER ITERATIONS 
       AND A TOTAL OF          7 INNER ITERATIONS.
    ------------------------------------------------

 NO OUTPUT CONTROL FOR STRESS PERIOD   48   TIME STEP   24
 
 SOLVING FOR HEAD 
                                                   Max.-Head-Change                         Max.-Flux-Residual
  Residual-Control   Outer-Iter.   Inner-Iter.     Column Row Layer    Maximum-Head-Change  Column Row Layer    Maximum-Flux-Residual          L2-NORM 
          0                 1           2             4    7     1       0.2595560685E-01       4    7    1         0.1362665615E+01      0.3325189406E+01
          0                 2           2             4    7     1      -0.2523417138E-02       4    7    1        -0.1361934593E+00      0.3323334492E+00
          0                 3           2             4    7     1       0.1717058403E-03       4    7    1         0.9526342601E-02      0.2325165433E-01
          0                 4           1             4    7     1      -0.6823771865E-05       4    7    1        -0.3891384035E-03      0.9501949706E-03

    ------------------------------------------------
       NWT REQUIRED            4 OUTER ITERATIONS 
       AND A TOTAL OF          7 INNER ITERATIONS.
    ------------------------------------------------

 NO OUTPUT CONTROL FOR STRESS PERIOD   48   TIME STEP   25
 
 SOLVING FOR HEAD 
                                                   Max.-Head-Change                         Max.-Flux-Residual
  Residual-Control   Outer-Iter.   Inner-Iter.     Column Row Layer    Maximum-Head-Change  Column Row Layer    Maximum-Flux-Residual          L2-NORM 
          0                 1           2             4    7     1       0.2569053138E-01       4    7    1         0.1348594922E+01      0.3297183768E+01
          0                 2           2             4    7     1      -0.2497647068E-02       4    7    1        -0.1347871233E+00      0.3295723311E+00
          0                 3           2             4    7     1       0.1699523077E-03       4    7    1         0.9427972732E-02      0.2305848073E-01
          0                 4           1             4    7     1      -0.6754083977E-05       4    7    1        -0.3851200854E-03      0.9423106301E-03

    ------------------------------------------------
       NWT REQUIRED            4 OUTER ITERATIONS 
       AND A TOTAL OF          7 INNER ITERATIONS.
    ------------------------------------------------

 NO OUTPUT CONTROL FOR STRESS PERIOD   48   TIME STEP   26
 
 SOLVING FOR HEAD 
                                                   Max.-Head-Change                         Max.-Flux-Residual
  Residual-Control   Outer-Iter.   Inner-Iter.     Column Row Layer    Maximum-Head-Change  Column Row Layer    Maximum-Flux-Residual          L2-NORM 
          0                 1           2             4    7     1       0.2543092311E-01       4    7    1         0.1334821967E+01      0.3269655893E+01
          0                 2           2             4    7     1      -0.2472407555E-02       4    7    1        -0.1334105464E+00      0.3268472122E+00
          0                 3           2             4    7     1       0.1682348767E-03       4    7    1         0.9331684460E-02      0.2286782205E-01
          0                 4           1             4    7     1      -0.6685830579E-05       4    7    1        -0.3811867682E-03      0.9345894827E-03

    ------------------------------------------------
       NWT REQUIRED            4 OUTER ITERATIONS 
       AND A TOTAL OF          7 INNER ITERATIONS.
    ------------------------------------------------

 NO OUTPUT CONTROL FOR STRESS PERIOD   48   TIME STEP   27
 
 SOLVING FOR HEAD 
                                                   Max.-Head-Change                         Max.-Flux-Residual
  Residual-Control   Outer-Iter.   Inner-Iter.     Column Row Layer    Maximum-Head-Change  Column Row Layer    Maximum-Flux-Residual          L2-NORM 
          0                 1           2             4    7     1       0.2517652938E-01       4    7    1         0.1321332530E+01      0.3242564243E+01
          0                 2           2             4    7     1      -0.2447674983E-02       4    7    1        -0.1320623072E+00      0.3241390430E+00
          0                 3           2             4    7     1       0.1665519421E-03       4    7    1         0.9237378408E-02      0.2267834503E-01
          0                 4           1             4    7     1      -0.6618948351E-05       4    7    1        -0.3773344447E-03      0.9267692071E-03

    ------------------------------------------------
       NWT REQUIRED            4 OUTER ITERATIONS 
       AND A TOTAL OF          7 INNER ITERATIONS.
    ------------------------------------------------

 NO OUTPUT CONTROL FOR STRESS PERIOD   48   TIME STEP   28
 
 SOLVING FOR HEAD 
                                                   Max.-Head-Change                         Max.-Flux-Residual
  Residual-Control   Outer-Iter.   Inner-Iter.     Column Row Layer    Maximum-Head-Change  Column Row Layer    Maximum-Flux-Residual          L2-NORM 
          0                 1           2             4    7     1       0.2492710867E-01       4    7    1         0.1308113458E+01      0.3215887615E+01
          0                 2           2             4    7     1      -0.2423425908E-02       4    7    1        -0.1307410912E+00      0.3214723833E+00
          0                 3           2             4    7     1       0.1649019072E-03       4    7    1         0.9144962570E-02      0.2249179016E-01
          0                 4           1             4    7     1      -0.6553373397E-05       4    7    1        -0.3735593307E-03      0.9191527086E-03

    ------------------------------------------------
       NWT REQUIRED            4 OUTER ITERATIONS 
       AND A TOTAL OF          7 INNER ITERATIONS.
    ------------------------------------------------

 NO OUTPUT CONTROL FOR STRESS PERIOD   48   TIME STEP   29
 
 SOLVING FOR HEAD 
                                                   Max.-Head-Change                         Max.-Flux-Residual
  Residual-Control   Outer-Iter.   Inner-Iter.     Column Row Layer    Maximum-Head-Change  Column Row Layer    Maximum-Flux-Residual          L2-NORM 
          0                 1           2             4    7     1       0.2468244246E-01       4    7    1         0.1295152228E+01      0.3189622023E+01
          0                 2           2             4    7     1      -0.2399639084E-02       4    7    1        -0.1294456466E+00      0.3188468032E+00
          0                 3           2             4    7     1       0.1632833273E-03       4    7    1         0.9054349440E-02      0.2230808650E-01
          0                 4           1             4    7     1      -0.6489048959E-05       4    7    1        -0.3698578626E-03      0.9116398349E-03

    ------------------------------------------------
       NWT REQUIRED            4 OUTER ITERATIONS 
       AND A TOTAL OF          7 INNER ITERATIONS.
    ------------------------------------------------

 NO OUTPUT CONTROL FOR STRESS PERIOD   48   TIME STEP   30



 STREAM LISTING     PERIOD     48   STEP       30

 LAYER ROW COL. STREAM  RCH.  FLOW INTO     FLOW TO   FLOW OUT OF   OVRLND.     DIRECT     STREAM       STREAM     STREAM     STREAM   STREAMBED  STREAMBED
                SEG.NO.  NO.  STRM. RCH.    AQUIFER    STRM. RCH.    RUNOFF     PRECIP       ET          HEAD       DEPTH      WIDTH   CONDCTNC.   GRADIENT

   1    1    1     1     1    1.9000E+01  2.1427E-01   1.8786E+01  0.000E+00  0.000E+00  0.000E+00  1.09413E+03  1.082E+00  1.166E+01  5.249E-02  1.361E+00
   1    2    2     1     2    1.8786E+01  3.3054E-01   1.8455E+01  0.000E+00  0.000E+00  0.000E+00  1.08914E+03  1.077E+00  1.158E+01  8.107E-02  1.359E+00
   1    3    3     1     3    1.8455E+01  2.8064E-01   1.8175E+01  0.000E+00  0.000E+00  0.000E+00  1.08349E+03  1.072E+00  1.149E+01  6.892E-02  1.357E+00
   1    3    4     1     4    1.8175E+01  2.5740E-01   1.7917E+01  0.000E+00  0.000E+00  0.000E+00  1.07848E+03  1.068E+00  1.140E+01  6.328E-02  1.356E+00
   1    4    5     2     1    1.5917E+01  3.0542E-01   1.5612E+01  0.000E+00  0.000E+00  0.000E+00  1.07285E+03  9.157E-01  1.200E+01  7.800E-02  1.305E+00
   1    5    6     2     2    1.5612E+01  2.3438E-01   1.5377E+01  0.000E+00  0.000E+00  0.000E+00  1.06742E+03  9.063E-01  1.200E+01  6.000E-02  1.302E+00
   1    6    6     2     3    1.5377E+01  2.3388E-01   1.5143E+01  0.000E+00  0.000E+00  0.000E+00  1.06269E+03  8.980E-01  1.200E+01  6.000E-02  1.299E+00
   1    7    6     2     4    1.5143E+01  2.3338E-01   1.4910E+01  0.000E+00  0.000E+00  0.000E+00  1.05797E+03  8.897E-01  1.200E+01  6.000E-02  1.297E+00
   1    8    6     2     5    1.4910E+01  2.3289E-01   1.4677E+01  0.000E+00  0.000E+00  0.000E+00  1.05324E+03  8.814E-01  1.200E+01  6.000E-02  1.294E+00
   1    3    5     3     1    2.0000E+00  2.8252E-01   1.7175E+00  0.000E+00  0.000E+00  0.000E+00  1.07555E+03  1.909E+00  9.636E+00  7.227E-02  1.955E+00
   1    3    6     3     2    1.7175E+00  2.4905E-01   1.4684E+00  0.000E+00  0.000E+00  0.000E+00  1.07264E+03  1.727E+00  8.909E+00  6.682E-02  1.864E+00
   1    3    7     3     3    1.4684E+00  1.9718E-01   1.2712E+00  0.000E+00  0.000E+00  0.000E+00  1.06987E+03  1.555E+00  8.218E+00  5.547E-02  1.777E+00
   1    4    8     3     4    1.2712E+00  2.2567E-01   1.0456E+00  0.000E+00  0.000E+00  0.000E+00  1.06682E+03  1.364E+00  7.455E+00  6.709E-02  1.682E+00
   1    5    8     3     5    1.0456E+00  1.5790E-01   8.8768E-01  0.000E+00  0.000E+00  0.000E+00  1.06362E+03  1.164E+00  6.655E+00  4.991E-02  1.582E+00
   1    6    8     3     6    8.8768E-01  5.5980E-02   8.3170E-01  0.000E+00  0.000E+00  0.000E+00  1.06158E+03  1.036E+00  6.145E+00  1.844E-02  1.518E+00
   1    5   10     4     1    1.0000E+01  9.0919E-02   9.9091E+00  0.000E+00  0.000E+00  0.000E+00  1.07836E+03  6.368E-01  1.000E+01  2.500E-02  1.212E+00
   1    5    9     4     2    9.9091E+00  1.8158E-01   9.7275E+00  0.000E+00  0.000E+00  0.000E+00  1.07154E+03  6.315E-01  1.000E+01  5.000E-02  1.211E+00
   1    6    8     4     3    9.7275E+00  1.2689E-01   9.6006E+00  0.000E+00  0.000E+00  0.000E+00  1.06381E+03  6.256E-01  1.000E+01  3.500E-02  1.209E+00
   1    6    8     5     1    1.0432E+01  2.2686E-01   1.0205E+01  0.000E+00  0.000E+00  0.000E+00  1.05868E+03  6.790E-01  1.542E+01  6.166E-02  1.226E+00
   1    7    7     5     2    1.0205E+01  2.7894E-01   9.9265E+00  0.000E+00  0.000E+00  0.000E+00  1.05417E+03  6.732E-01  1.519E+01  7.594E-02  1.224E+00
   1    8    7     5     3    9.9265E+00  1.9221E-01   9.7343E+00  0.000E+00  0.000E+00  0.000E+00  1.04992E+03  6.676E-01  1.497E+01  5.241E-02  1.223E+00
   1    8    6     5     4    9.7343E+00  1.3577E-01   9.5985E+00  0.000E+00  0.000E+00  0.000E+00  1.04691E+03  6.637E-01  1.482E+01  3.706E-02  1.221E+00
   1    9    6     6     1    2.4276E+01  2.5176E-01   2.4024E+01  0.000E+00  0.000E+00  0.000E+00  1.04392E+03  1.196E+00  1.200E+01  6.000E-02  1.399E+00
   1   10    7     6     2    2.4024E+01  2.5131E-01   2.3773E+01  0.000E+00  0.000E+00  0.000E+00  1.03937E+03  1.188E+00  1.200E+01  6.000E-02  1.396E+00
   1   11    7     6     3    2.3773E+01  2.5086E-01   2.3522E+01  0.000E+00  0.000E+00  0.000E+00  1.03482E+03  1.181E+00  1.200E+01  6.000E-02  1.394E+00
   1   12    7     6     4    2.3522E+01  2.5041E-01   2.3271E+01  0.000E+00  0.000E+00  0.000E+00  1.03026E+03  1.173E+00  1.200E+01  6.000E-02  1.391E+00
   1   13    7     6     5    2.3271E+01  1.2339E-02   2.3259E+01  0.000E+00  0.000E+00  0.000E+00  1.02708E+03  1.169E+00  1.200E+01  2.400E-02  1.714E-01
   1   14    9     7     1    1.5000E+02  1.3813E+00   1.4862E+02  0.000E+00  0.000E+00  0.000E+00  1.03987E+03  2.288E+00  5.529E+01  5.593E-01  8.233E-01
   1   13    8     7     2    1.4862E+02  1.9940E+00   1.4662E+02  0.000E+00  0.000E+00  0.000E+00  1.03478E+03  2.279E+00  5.525E+01  6.147E-01  1.081E+00
   1   13    7     7     3    1.4662E+02  1.7441E+00   1.4488E+02  0.000E+00  0.000E+00  0.000E+00  1.02969E+03  2.269E+00  5.521E+01  5.584E-01  1.041E+00
   1   13    6     8     1    1.6814E+02  1.1768E+00   1.6696E+02  0.000E+00  0.000E+00  0.000E+00  1.02481E+03  2.936E+00  4.257E+01  4.339E-01  9.042E-01
   1   13    5     8     2    1.6696E+02  4.1362E-01   1.6655E+02  0.000E+00  0.000E+00  0.000E+00  1.01856E+03  2.931E+00  4.250E+01  4.331E-01  3.184E-01
   1   13    4     8     3    1.6655E+02 -1.6297E+00   1.6818E+02  0.000E+00  0.000E+00  0.000E+00  1.01231E+03  2.935E+00  4.256E+01  4.337E+00 -1.253E-01
   1   13    3     8     4    1.6818E+02 -3.2631E+00   1.7144E+02  0.000E+00  0.000E+00  0.000E+00  1.00608E+03  2.951E+00  4.279E+01  4.360E+00 -2.495E-01
   1   13    2     8     5    1.7144E+02 -2.4932E+00   1.7394E+02  0.000E+00  0.000E+00  0.000E+00  9.99845E+02  2.970E+00  4.306E+01  4.388E+00 -1.894E-01
   1   13    1     8     6    1.7394E+02 -1.9576E+00   1.7589E+02  0.000E+00  0.000E+00  0.000E+00  9.94859E+02  2.984E+00  4.327E+01  2.645E+00 -2.467E-01





UNSATURATED ZONE PACKAGE VOLUMETRIC BUDGET FOR  TIME STEP    30 STRESS PERIOD   48
  ------------------------------------------------------------------------------



     CUMULATIVE VOLUMES      L**3       RATES FOR THIS TIME STEP      L**3/T
     ------------------                 ------------------------

           IN:                                      IN:
           ---                                      ---
        INFILTRATION =  2426117932.0820          INFILTRATION =           4.4075

          OUT:                                     OUT:
          ----                                     ----
              UZF ET =  1999852759.8224                UZF ET =           0.7250
        UZF RECHARGE =   296274620.4346          UZF RECHARGE =           0.0161

            IN - OUT =   129990551.8250              IN - OUT =           3.6664

          STORAGE:                                 STORAGE:
          --------                                 --------
      STORAGE CHANGE =   129992056.1511        STORAGE CHANGE =           3.6664

 PERCENT DISCREPANCY IS DIFFERENCE BETWEEN IN-OUT MINUS CHANGE IN STORAGE
 DIVIDED BY THE AVERAGE OF IN AND OUT TIMES 100

 PERCENT DISCREPANCY =          -0.00     PERCENT DISCREPANCY =           0.00






1
  VOLUMETRIC BUDGET FOR AGRICULTURAL FIELDS AT TIME STEP   30, STRESS PERIOD  48
  ------------------------------------------------------------------------------

     CUMULATIVE VOLUMES      L**3       RATES FOR THIS TIME STEP      L**3/T
     ------------------                 ------------------------

           IN:                                      IN:
           ---                                      ---
               AG WELLS  =  1881236224.0000                 AG WELLS  =           0.0000
      DIVERSION SEGMENTS =           0.0000        DIVERSION SEGMENTS =           0.0000
           GW IRRIGATION =           0.0000             GW IRRIGATION =           0.0000
           SW IRRIGATION =           0.0000             SW IRRIGATION =           0.0000
        SYSTEM LOSSES GW =           0.0000          SYSTEM LOSSES GW =           0.0000
        SYSTEM LOSSES SW =           0.0000          SYSTEM LOSSES SW =           0.0000

                TOTAL IN =  1881236224.0000                  TOTAL IN =           0.0000

          OUT:                                     OUT:
          ----                                     ----
               AG WELLS  =           0.0000                 AG WELLS  =           0.0000
      DIVERSION SEGMENTS =           0.0000        DIVERSION SEGMENTS =           0.0000
           GW IRRIGATION =  1881236224.0000             GW IRRIGATION =           0.0000
           SW IRRIGATION =           0.0000             SW IRRIGATION =           0.0000
        SYSTEM LOSSES GW =           0.0000          SYSTEM LOSSES GW =           0.0000
        SYSTEM LOSSES SW =           0.0000          SYSTEM LOSSES SW =           0.0000

               TOTAL OUT =  1881236224.0000                 TOTAL OUT =           0.0000

                IN - OUT =           0.0000                  IN - OUT =           0.0000

     PERCENT DISCREPANCY =           0.00         PERCENT DISCREPANCY =           0.00



1
  VOLUMETRIC BUDGET FOR ENTIRE MODEL AT END OF TIME STEP   30, STRESS PERIOD  48
  ------------------------------------------------------------------------------

     CUMULATIVE VOLUMES      L**3       RATES FOR THIS TIME STEP      L**3/T
     ------------------                 ------------------------

           IN:                                      IN:
           ---                                      ---
             STORAGE     =  2402800896.0000               STORAGE     =           8.0027
       CONSTANT HEAD     =           0.0000         CONSTANT HEAD     =           0.0000
     HEAD DEP BOUNDS     =    35424716.0000       HEAD DEP BOUNDS     =           0.2889
      STREAM LEAKAGE     =  1517054208.0000        STREAM LEAKAGE     =          12.4508
        UZF RECHARGE     =   296274400.0000          UZF RECHARGE     =       1.6126E-02
               GW ET     =           0.0000                 GW ET     =           0.0000
     SURFACE LEAKAGE     =           0.0000       SURFACE LEAKAGE     =           0.0000
           AG WELLS      =           0.0000             AG WELLS      =           0.0000

                TOTAL IN =  4251554304.0000                  TOTAL IN =          20.7585

          OUT:                                     OUT:
          ----                                     ----
             STORAGE     =  1067859584.0000               STORAGE     =          11.1261
       CONSTANT HEAD     =           0.0000         CONSTANT HEAD     =           0.0000
     HEAD DEP BOUNDS     =    36070640.0000       HEAD DEP BOUNDS     =           0.2888
      STREAM LEAKAGE     =  1249085056.0000        STREAM LEAKAGE     =           9.3436
        UZF RECHARGE     =           0.0000          UZF RECHARGE     =           0.0000
               GW ET     =    17288296.0000                 GW ET     =           0.0000
     SURFACE LEAKAGE     =           0.0000       SURFACE LEAKAGE     =           0.0000
           AG WELLS      =  1881236224.0000             AG WELLS      =           0.0000

               TOTAL OUT =  4251539712.0000                 TOTAL OUT =          20.7585

                IN - OUT =       14592.0000                  IN - OUT =       1.3351E-05

     PERCENT DISCREPANCY =           0.00         PERCENT DISCREPANCY =           0.00






         TIME SUMMARY AT END OF TIME STEP   30 IN STRESS PERIOD   48
                    SECONDS     MINUTES      HOURS       DAYS        YEARS
                    -----------------------------------------------------------
   TIME STEP LENGTH  87667.      1461.1      24.352      1.0147     2.77799E-03
 STRESS PERIOD TIME 2.63000E+06  43833.      730.56      30.440     8.33397E-02
         TOTAL TIME 1.23695E+08 2.06158E+06  34360.      1431.7      3.9197    
1
1
                            STRESS PERIOD NO.   49, LENGTH =   2630000.    
                            -----------------------------------------------

                              NUMBER OF TIME STEPS =    30

                               MULTIPLIER FOR DELT =     1.000

                            INITIAL TIME STEP SIZE =   87666.66    

 REUSING NON-PARAMETER GHB CELLS FROM LAST STRESS PERIOD

      2 GHB CELLS

 REUSING STREAM SEGMENT DATA FROM LAST STRESS PERIOD



            AREAL INFILTRATION RATE
 READING ON UNIT   19 WITH FORMAT: (10F4.0)            

            1           2           3           4           5           6           7           8           9          10
 ........................................................................................................................
   1   1.2000E-09   0.000       0.000       0.000       0.000       0.000       0.000       0.000       0.000       0.000    
   2   2.1000E-09  2.0000E-09  8.0000E-10  8.5000E-09   0.000       0.000       0.000       0.000       0.000       0.000    
   3   5.0000E-10  1.1000E-09  8.8000E-09  5.5000E-09   0.000       0.000       0.000       0.000       0.000       0.000    
   4   8.5000E-09  1.1000E-09  1.1000E-09  1.1000E-09  2.0000E-09   0.000       0.000       0.000       0.000       0.000    
   5   8.5000E-09  1.1000E-09  1.1000E-09  1.1000E-09  1.1000E-09   0.000       0.000       0.000       0.000       0.000    
   6   8.5000E-09  5.2000E-09  2.1000E-09  1.1000E-09  1.5000E-09   0.000       0.000       0.000       0.000       0.000    
   7   8.5000E-09  5.2000E-09  2.1000E-09  1.2000E-09  2.0000E-09   0.000       0.000       0.000       0.000       0.000    
   8   5.0000E-10  5.2000E-09  2.1000E-09  1.2000E-09  5.0000E-09   0.000       0.000       0.000       0.000       0.000    
   9   5.0000E-10  5.2000E-09  2.1000E-09  1.2000E-09  5.0000E-09   0.000       0.000       0.000       0.000       0.000    
  10   5.0000E-10  5.2000E-09  2.1000E-09  1.2000E-09  5.8000E-09   0.000       0.000       0.000       0.000       0.000    
  11   1.0000E-10  1.1000E-09  1.1000E-09  1.2000E-09  5.0000E-09   0.000       0.000       0.000       0.000       0.000    
  12   1.1000E-09  1.1000E-09  1.1000E-09  1.1000E-09  2.0000E-09   0.000       0.000       0.000       0.000       0.000    
  13   1.1000E-09  2.2000E-09  2.2000E-09  2.1000E-09  1.0000E-09   0.000       0.000       0.000       0.000       0.000    
  14   2.0000E-10  5.5000E-09  5.5000E-09  5.2000E-09  1.0000E-09   0.000       0.000       0.000       0.000       0.000    
  15    0.000      8.8000E-09  8.8000E-09   0.000       0.000       0.000       0.000       0.000       0.000       0.000    

                  ET RATE =  5.000000E-10

 USING ET EXTINCTION DEPTH FROM PREVIOUS STRESS PERIOD. CURRENT PERIOD IS:      49

 USING EXTINCTION WATER CONTENT FROM PREVIOUS STRESS PERIOD. CURRENT PERIOD IS:      49

 USING AIR ENTRY PRESSURE FROM PREVIOUS STRESS PERIOD. CURRENT PERIOD IS:      49

 USING ROOT PRESSURE HEAD FROM PREVIOUS STRESS PERIOD. CURRENT PERIOD IS:      49

 USING ROOT ACTIVITY FROM PREVIOUS STRESS PERIOD. CURRENT PERIOD IS:      49

 PROCESSING AG STRESS PERIOD DATA

 READING AG STRESS PERIOD DATA

 READING IRRIGATION WELL

 END PROCESSING AG STRESS PERIOD DATA OPTIONS
 
 SOLVING FOR HEAD 
                                                   Max.-Head-Change                         Max.-Flux-Residual
  Residual-Control   Outer-Iter.   Inner-Iter.     Column Row Layer    Maximum-Head-Change  Column Row Layer    Maximum-Flux-Residual          L2-NORM 
          0                 1           2             4    7     1       0.2444231824E-01       4    7    1         0.1282437510E+01      0.3163746320E+01
          0                 2           2             4    7     1      -0.2376293850E-02       4    7    1        -0.1281748409E+00      0.3162602087E+00
          0                 3           2             4    7     1       0.1616947955E-03       4    7    1         0.8965459732E-02      0.2212712330E-01
          0                 4           1             4    7     1      -0.6425918509E-05       4    7    1        -0.3662268009E-03      0.9044145906E-03

    ------------------------------------------------
       NWT REQUIRED            4 OUTER ITERATIONS 
       AND A TOTAL OF          7 INNER ITERATIONS.
    ------------------------------------------------

 NO OUTPUT CONTROL FOR STRESS PERIOD   49   TIME STEP    1
 
 SOLVING FOR HEAD 
                                                   Max.-Head-Change                         Max.-Flux-Residual
  Residual-Control   Outer-Iter.   Inner-Iter.     Column Row Layer    Maximum-Head-Change  Column Row Layer    Maximum-Flux-Residual          L2-NORM 
          0                 1           2             4    7     1       0.2420681025E-01       4    7    1         0.1269972846E+01      0.3138265425E+01
          0                 2           2             4    7     1      -0.2353397422E-02       4    7    1        -0.1269290282E+00      0.3137131045E+00
          0                 3           2             4    7     1       0.1601368033E-03       4    7    1         0.8878318268E-02      0.2194892586E-01
          0                 4           1             4    7     1      -0.6364001849E-05       4    7    1        -0.3626671487E-03      0.8969682449E-03

    ------------------------------------------------
       NWT REQUIRED            4 OUTER ITERATIONS 
       AND A TOTAL OF          7 INNER ITERATIONS.
    ------------------------------------------------

 NO OUTPUT CONTROL FOR STRESS PERIOD   49   TIME STEP    2
 
 SOLVING FOR HEAD 
                                                   Max.-Head-Change                         Max.-Flux-Residual
  Residual-Control   Outer-Iter.   Inner-Iter.     Column Row Layer    Maximum-Head-Change  Column Row Layer    Maximum-Flux-Residual          L2-NORM 
          0                 1           2             4    7     1       0.2397532745E-01       4    7    1         0.1257725685E+01      0.3113156231E+01
          0                 2           2             4    7     1      -0.2330892336E-02       4    7    1        -0.1257049548E+00      0.3112031447E+00
          0                 3           2             4    7     1       0.1586054404E-03       4    7    1         0.8792697416E-02      0.2177332455E-01
          0                 4           1             4    7     1      -0.6303143557E-05       4    7    1        -0.3591696272E-03      0.8897923998E-03

    ------------------------------------------------
       NWT REQUIRED            4 OUTER ITERATIONS 
       AND A TOTAL OF          7 INNER ITERATIONS.
    ------------------------------------------------

 NO OUTPUT CONTROL FOR STRESS PERIOD   49   TIME STEP    3
 
 SOLVING FOR HEAD 
                                                   Max.-Head-Change                         Max.-Flux-Residual
  Residual-Control   Outer-Iter.   Inner-Iter.     Column Row Layer    Maximum-Head-Change  Column Row Layer    Maximum-Flux-Residual          L2-NORM 
          0                 1           2             4    7     1       0.2374797222E-01       4    7    1         0.1245701783E+01      0.3088416901E+01
          0                 2           2             4    7     1      -0.2308788548E-02       4    7    1        -0.1245031963E+00      0.3087301678E+00
          0                 3           2             4    7     1       0.1571013835E-03       4    7    1         0.8708637434E-02      0.2160031292E-01
          0                 4           1             4    7     1      -0.6243369998E-05       4    7    1        -0.3557358420E-03      0.8827030219E-03

    ------------------------------------------------
       NWT REQUIRED            4 OUTER ITERATIONS 
       AND A TOTAL OF          7 INNER ITERATIONS.
    ------------------------------------------------

 NO OUTPUT CONTROL FOR STRESS PERIOD   49   TIME STEP    4
 
 SOLVING FOR HEAD 
                                                   Max.-Head-Change                         Max.-Flux-Residual
  Residual-Control   Outer-Iter.   Inner-Iter.     Column Row Layer    Maximum-Head-Change  Column Row Layer    Maximum-Flux-Residual          L2-NORM 
          0                 1           2             4    7     1       0.2352458359E-01       4    7    1         0.1233891888E+01      0.3064041546E+01
          0                 2           2             4    7     1      -0.2287070406E-02       4    7    1        -0.1233228276E+00      0.3062935963E+00
          0                 3           2             4    7     1       0.1556235695E-03       4    7    1         0.8626073702E-02      0.2142984565E-01
          0                 4           1             4    7     1      -0.6184639955E-05       4    7    1        -0.3523631985E-03      0.8757570123E-03

    ------------------------------------------------
       NWT REQUIRED            4 OUTER ITERATIONS 
       AND A TOTAL OF          7 INNER ITERATIONS.
    ------------------------------------------------

 NO OUTPUT CONTROL FOR STRESS PERIOD   49   TIME STEP    5
 
 SOLVING FOR HEAD 
                                                   Max.-Head-Change                         Max.-Flux-Residual
  Residual-Control   Outer-Iter.   Inner-Iter.     Column Row Layer    Maximum-Head-Change  Column Row Layer    Maximum-Flux-Residual          L2-NORM 
          0                 1           2             4    7     1       0.2330487057E-01       4    7    1         0.1222280372E+01      0.3040006422E+01
          0                 2           2             4    7     1      -0.2265709619E-02       4    7    1        -0.1221622870E+00      0.3038910134E+00
          0                 3           2             4    7     1       0.1541700716E-03       4    7    1         0.8544896875E-02      0.2126175515E-01
          0                 4           1             4    7     1      -0.6126876063E-05       4    7    1        -0.3490472041E-03      0.8688917021E-03

    ------------------------------------------------
       NWT REQUIRED            4 OUTER ITERATIONS 
       AND A TOTAL OF          7 INNER ITERATIONS.
    ------------------------------------------------

 NO OUTPUT CONTROL FOR STRESS PERIOD   49   TIME STEP    6
 
 SOLVING FOR HEAD 
                                                   Max.-Head-Change                         Max.-Flux-Residual
  Residual-Control   Outer-Iter.   Inner-Iter.     Column Row Layer    Maximum-Head-Change  Column Row Layer    Maximum-Flux-Residual          L2-NORM 
          0                 1           2             4    7     1       0.2308883000E-01       4    7    1         0.1210866712E+01      0.3016318665E+01
          0                 2           2             4    7     1      -0.2244705495E-02       4    7    1        -0.1210215219E+00      0.3015096470E+00
          0                 3           2             4    7     1       0.1527408433E-03       4    7    1         0.8465103314E-02      0.2109515499E-01
          0                 4           1             4    7     1      -0.6070076826E-05       4    7    1        -0.3457877294E-03      0.8622050517E-03

    ------------------------------------------------
       NWT REQUIRED            4 OUTER ITERATIONS 
       AND A TOTAL OF          7 INNER ITERATIONS.
    ------------------------------------------------

 NO OUTPUT CONTROL FOR STRESS PERIOD   49   TIME STEP    7
 
 SOLVING FOR HEAD 
                                                   Max.-Head-Change                         Max.-Flux-Residual
  Residual-Control   Outer-Iter.   Inner-Iter.     Column Row Layer    Maximum-Head-Change  Column Row Layer    Maximum-Flux-Residual          L2-NORM 
          0                 1           2             4    7     1       0.2287633115E-01       4    7    1         0.1199643481E+01      0.2992972317E+01
          0                 2           2             4    7     1      -0.2224046487E-02       4    7    1        -0.1198997902E+00      0.2991894896E+00
          0                 3           2             4    7     1       0.1513350981E-03       4    7    1         0.8386641111E-02      0.2093282920E-01
          0                 4           1             4    7     1      -0.6014210927E-05       4    7    1        -0.3425826280E-03      0.8554417756E-03

    ------------------------------------------------
       NWT REQUIRED            4 OUTER ITERATIONS 
       AND A TOTAL OF          7 INNER ITERATIONS.
    ------------------------------------------------

 NO OUTPUT CONTROL FOR STRESS PERIOD   49   TIME STEP    8
 
 SOLVING FOR HEAD 
                                                   Max.-Head-Change                         Max.-Flux-Residual
  Residual-Control   Outer-Iter.   Inner-Iter.     Column Row Layer    Maximum-Head-Change  Column Row Layer    Maximum-Flux-Residual          L2-NORM 
          0                 1           2             4    7     1       0.2266724845E-01       4    7    1         0.1188603841E+01      0.2970009246E+01
          0                 2           2             4    7     1      -0.2203720083E-02       4    7    1        -0.1187964083E+00      0.2969551625E+00
          0                 3           2             4    7     1       0.1499519854E-03       4    7    1         0.8309462425E-02      0.2077651588E-01
          0                 4           1             4    7     1      -0.5959243945E-05       4    7    1        -0.3394299472E-03      0.8490594449E-03

    ------------------------------------------------
       NWT REQUIRED            4 OUTER ITERATIONS 
       AND A TOTAL OF          7 INNER ITERATIONS.
    ------------------------------------------------

 NO OUTPUT CONTROL FOR STRESS PERIOD   49   TIME STEP    9
 
 SOLVING FOR HEAD 
                                                   Max.-Head-Change                         Max.-Flux-Residual
  Residual-Control   Outer-Iter.   Inner-Iter.     Column Row Layer    Maximum-Head-Change  Column Row Layer    Maximum-Flux-Residual          L2-NORM 
          0                 1           2             4    7     1       0.2246146352E-01       4    7    1         0.1177741297E+01      0.2947315763E+01
          0                 2           2             4    7     1      -0.2183712579E-02       4    7    1        -0.1177107269E+00      0.2946252484E+00
          0                 3           2             4    7     1       0.1485905729E-03       4    7    1         0.8233521879E-02      0.2061486630E-01
          0                 4           1             4    7     1      -0.5905139614E-05       4    7    1        -0.3363278502E-03      0.8769225486E-03

    ------------------------------------------------
       NWT REQUIRED            4 OUTER ITERATIONS 
       AND A TOTAL OF          7 INNER ITERATIONS.
    ------------------------------------------------

 NO OUTPUT CONTROL FOR STRESS PERIOD   49   TIME STEP   10
 
 SOLVING FOR HEAD 
                                                   Max.-Head-Change                         Max.-Flux-Residual
  Residual-Control   Outer-Iter.   Inner-Iter.     Column Row Layer    Maximum-Head-Change  Column Row Layer    Maximum-Flux-Residual          L2-NORM 
          0                 1           2             4    7     1       0.2225873115E-01       4    7    1         0.1167042543E+01      0.2924941051E+01
          0                 2           2             4    7     1      -0.2164002700E-02       4    7    1        -0.1166414163E+00      0.2923864211E+00
          0                 3           2             4    7     1       0.1472494123E-03       4    7    1         0.8158726422E-02      0.2045685293E-01
          0                 4           1             4    7     1      -0.5851840601E-05       4    7    1        -0.3332725460E-03      0.8359989222E-03

    ------------------------------------------------
       NWT REQUIRED            4 OUTER ITERATIONS 
       AND A TOTAL OF          7 INNER ITERATIONS.
    ------------------------------------------------

 NO OUTPUT CONTROL FOR STRESS PERIOD   49   TIME STEP   11
 
 SOLVING FOR HEAD 
                                                   Max.-Head-Change                         Max.-Flux-Residual
  Residual-Control   Outer-Iter.   Inner-Iter.     Column Row Layer    Maximum-Head-Change  Column Row Layer    Maximum-Flux-Residual          L2-NORM 
          0                 1           2             4    7     1       0.2205922243E-01       4    7    1         0.1156516582E+01      0.2902853377E+01
          0                 2           2             4    7     1      -0.2144624219E-02       4    7    1        -0.1155893761E+00      0.2902083385E+00
          0                 3           2             4    7     1       0.1459308021E-03       4    7    1         0.8085138976E-02      0.2030635197E-01
          0                 4           1             4    7     1      -0.5799437395E-05       4    7    1        -0.3302665784E-03      0.8297804699E-03

    ------------------------------------------------
       NWT REQUIRED            4 OUTER ITERATIONS 
       AND A TOTAL OF          7 INNER ITERATIONS.
    ------------------------------------------------

 NO OUTPUT CONTROL FOR STRESS PERIOD   49   TIME STEP   12
 
 SOLVING FOR HEAD 
                                                   Max.-Head-Change                         Max.-Flux-Residual
  Residual-Control   Outer-Iter.   Inner-Iter.     Column Row Layer    Maximum-Head-Change  Column Row Layer    Maximum-Flux-Residual          L2-NORM 
          0                 1           2             4    7     1       0.2186244304E-01       4    7    1         0.1146142234E+01      0.2881033813E+01
          0                 2           2             4    7     1      -0.2125475152E-02       4    7    1        -0.1145524902E+00      0.2879981461E+00
          0                 3           2             4    7     1       0.1446278035E-03       4    7    1         0.8012611635E-02      0.2014986250E-01
          0                 4           1             4    7     1      -0.5747654267E-05       4    7    1        -0.3273039142E-03      0.8234555181E-03

    ------------------------------------------------
       NWT REQUIRED            4 OUTER ITERATIONS 
       AND A TOTAL OF          7 INNER ITERATIONS.
    ------------------------------------------------

 NO OUTPUT CONTROL FOR STRESS PERIOD   49   TIME STEP   13
 
 SOLVING FOR HEAD 
                                                   Max.-Head-Change                         Max.-Flux-Residual
  Residual-Control   Outer-Iter.   Inner-Iter.     Column Row Layer    Maximum-Head-Change  Column Row Layer    Maximum-Flux-Residual          L2-NORM 
          0                 1           2             4    7     1       0.2166864252E-01       4    7    1         0.1135925880E+01      0.2859454778E+01
          0                 2           2             4    7     1      -0.2106633657E-02       4    7    1        -0.1135313955E+00      0.2858413736E+00
          0                 3           2             4    7     1       0.1433457330E-03       4    7    1         0.7941188798E-02      0.1999897525E-01
          0                 4           1             4    7     1      -0.5696703857E-05       4    7    1        -0.3243863821E-03      0.8172885941E-03

    ------------------------------------------------
       NWT REQUIRED            4 OUTER ITERATIONS 
       AND A TOTAL OF          7 INNER ITERATIONS.
    ------------------------------------------------

 NO OUTPUT CONTROL FOR STRESS PERIOD   49   TIME STEP   14
 
 SOLVING FOR HEAD 
                                                   Max.-Head-Change                         Max.-Flux-Residual
  Residual-Control   Outer-Iter.   Inner-Iter.     Column Row Layer    Maximum-Head-Change  Column Row Layer    Maximum-Flux-Residual          L2-NORM 
          0                 1           2             4    7     1       0.2147758103E-01       4    7    1         0.1125855734E+01      0.2838159949E+01
          0                 2           2             4    7     1      -0.2088058459E-02       4    7    1        -0.1125249139E+00      0.2837129976E+00
          0                 3           2             4    7     1       0.1420817827E-03       4    7    1         0.7870788146E-02      0.1985007942E-01
          0                 4           1             4    7     1      -0.5646472649E-05       4    7    1        -0.3215105824E-03      0.8114460746E-03

    ------------------------------------------------
       NWT REQUIRED            4 OUTER ITERATIONS 
       AND A TOTAL OF          7 INNER ITERATIONS.
    ------------------------------------------------

 NO OUTPUT CONTROL FOR STRESS PERIOD   49   TIME STEP   15
 
 SOLVING FOR HEAD 
                                                   Max.-Head-Change                         Max.-Flux-Residual
  Residual-Control   Outer-Iter.   Inner-Iter.     Column Row Layer    Maximum-Head-Change  Column Row Layer    Maximum-Flux-Residual          L2-NORM 
          0                 1           2             4    7     1       0.2128918203E-01       4    7    1         0.1115927601E+01      0.2817159589E+01
          0                 2           2             4    7     1      -0.2069742110E-02       4    7    1        -0.1115326265E+00      0.2816097578E+00
          0                 3           2             4    7     1       0.1408354460E-03       4    7    1         0.7801380318E-02      0.1970294848E-01
          0                 4           1             4    7     1      -0.5596941992E-05       4    7    1        -0.3186753513E-03      0.8051915335E-03

    ------------------------------------------------
       NWT REQUIRED            4 OUTER ITERATIONS 
       AND A TOTAL OF          7 INNER ITERATIONS.
    ------------------------------------------------

 NO OUTPUT CONTROL FOR STRESS PERIOD   49   TIME STEP   16
 
 SOLVING FOR HEAD 
                                                   Max.-Head-Change                         Max.-Flux-Residual
  Residual-Control   Outer-Iter.   Inner-Iter.     Column Row Layer    Maximum-Head-Change  Column Row Layer    Maximum-Flux-Residual          L2-NORM 
          0                 1           2             4    7     1       0.2110337555E-01       4    7    1         0.1106137513E+01      0.2796439621E+01
          0                 2           2             4    7     1      -0.2051677818E-02       4    7    1        -0.1105541365E+00      0.2795430471E+00
          0                 3           2             4    7     1       0.1396062609E-03       4    7    1         0.7732937611E-02      0.1955836127E-01
          0                 4           1             4    7     1      -0.5548092545E-05       4    7    1        -0.3158795403E-03      0.7992881088E-03

    ------------------------------------------------
       NWT REQUIRED            4 OUTER ITERATIONS 
       AND A TOTAL OF          7 INNER ITERATIONS.
    ------------------------------------------------

 NO OUTPUT CONTROL FOR STRESS PERIOD   49   TIME STEP   17
 
 SOLVING FOR HEAD 
                                                   Max.-Head-Change                         Max.-Flux-Residual
  Residual-Control   Outer-Iter.   Inner-Iter.     Column Row Layer    Maximum-Head-Change  Column Row Layer    Maximum-Flux-Residual          L2-NORM 
          0                 1           2             4    7     1       0.2092009427E-01       4    7    1         0.1096481841E+01      0.2776010518E+01
          0                 2           2             4    7     1      -0.2033859028E-02       4    7    1        -0.1095890811E+00      0.2775011291E+00
          0                 3           2             4    7     1       0.1383937809E-03       4    7    1         0.7665434615E-02      0.1941551579E-01
          0                 4           1             4    7     1      -0.5499907155E-05       4    7    1        -0.3131221245E-03      0.7934504453E-03

    ------------------------------------------------
       NWT REQUIRED            4 OUTER ITERATIONS 
       AND A TOTAL OF          7 INNER ITERATIONS.
    ------------------------------------------------

 NO OUTPUT CONTROL FOR STRESS PERIOD   49   TIME STEP   18
 
 SOLVING FOR HEAD 
                                                   Max.-Head-Change                         Max.-Flux-Residual
  Residual-Control   Outer-Iter.   Inner-Iter.     Column Row Layer    Maximum-Head-Change  Column Row Layer    Maximum-Flux-Residual          L2-NORM 
          0                 1           2             4    7     1       0.2073940599E-01       4    7    1         0.1086964383E+01      0.2755854275E+01
          0                 2           2             4    7     1      -0.2016292335E-02       4    7    1        -0.1086378400E+00      0.2754864694E+00
          0                 3           2             4    7     1       0.1371984548E-03       4    7    1         0.7598897884E-02      0.1927455797E-01
          0                 4           1             4    7     1      -0.5452403549E-05       4    7    1        -0.3104041830E-03      0.7876816734E-03

    ------------------------------------------------
       NWT REQUIRED            4 OUTER ITERATIONS 
       AND A TOTAL OF          7 INNER ITERATIONS.
    ------------------------------------------------

 NO OUTPUT CONTROL FOR STRESS PERIOD   49   TIME STEP   19
 
 SOLVING FOR HEAD 
                                                   Max.-Head-Change                         Max.-Flux-Residual
  Residual-Control   Outer-Iter.   Inner-Iter.     Column Row Layer    Maximum-Head-Change  Column Row Layer    Maximum-Flux-Residual          L2-NORM 
          0                 1           2             4    7     1       0.2056111129E-01       4    7    1         0.1077574081E+01      0.2735961614E+01
          0                 2           2             4    7     1      -0.1998958351E-02       4    7    1        -0.1076993078E+00      0.2734981311E+00
          0                 3           2             4    7     1       0.1360189635E-03       4    7    1         0.7533250125E-02      0.1913545556E-01
          0                 4           1             4    7     1      -0.5405529577E-05       4    7    1        -0.3077225535E-03      0.7820089122E-03

    ------------------------------------------------
       NWT REQUIRED            4 OUTER ITERATIONS 
       AND A TOTAL OF          7 INNER ITERATIONS.
    ------------------------------------------------

 NO OUTPUT CONTROL FOR STRESS PERIOD   49   TIME STEP   20
 
 SOLVING FOR HEAD 
                                                   Max.-Head-Change                         Max.-Flux-Residual
  Residual-Control   Outer-Iter.   Inner-Iter.     Column Row Layer    Maximum-Head-Change  Column Row Layer    Maximum-Flux-Residual          L2-NORM 
          0                 1           2             4    7     1       0.2038515171E-01       4    7    1         0.1068307881E+01      0.2716333666E+01
          0                 2           2             4    7     1      -0.1981851393E-02       4    7    1        -0.1067731795E+00      0.2715362807E+00
          0                 3           2             4    7     1       0.1348549204E-03       4    7    1         0.7468470002E-02      0.1899823139E-01
          0                 4           1             4    7     1      -0.5359268890E-05       4    7    1        -0.3050763473E-03      0.7869280678E-03

    ------------------------------------------------
       NWT REQUIRED            4 OUTER ITERATIONS 
       AND A TOTAL OF          7 INNER ITERATIONS.
    ------------------------------------------------

 NO OUTPUT CONTROL FOR STRESS PERIOD   49   TIME STEP   21
 
 SOLVING FOR HEAD 
                                                   Max.-Head-Change                         Max.-Flux-Residual
  Residual-Control   Outer-Iter.   Inner-Iter.     Column Row Layer    Maximum-Head-Change  Column Row Layer    Maximum-Flux-Residual          L2-NORM 
          0                 1           2             4    7     1       0.2021160100E-01       4    7    1         0.1059170039E+01      0.2696953344E+01
          0                 2           2             4    7     1      -0.1964978630E-02       4    7    1        -0.1058598805E+00      0.2695991324E+00
          0                 3           2             4    7     1       0.1337068130E-03       4    7    1         0.7404587232E-02      0.1886270246E-01
          0                 4           1             4    7     1      -0.5313642095E-05       4    7    1        -0.3024668176E-03      0.7708575035E-03

    ------------------------------------------------
       NWT REQUIRED            4 OUTER ITERATIONS 
       AND A TOTAL OF          7 INNER ITERATIONS.
    ------------------------------------------------

 NO OUTPUT CONTROL FOR STRESS PERIOD   49   TIME STEP   22
 
 SOLVING FOR HEAD 
                                                   Max.-Head-Change                         Max.-Flux-Residual
  Residual-Control   Outer-Iter.   Inner-Iter.     Column Row Layer    Maximum-Head-Change  Column Row Layer    Maximum-Flux-Residual          L2-NORM 
          0                 1           2             4    7     1       0.2004027037E-01       4    7    1         0.1050149806E+01      0.2677831629E+01
          0                 2           2             4    7     1      -0.1950534502E-02       4    7    1        -0.1051045582E+00      0.2677265596E+00
          0                 3           2             4    7     1       0.1327240159E-03       4    7    1         0.7351755588E-02      0.1873171222E-01
          0                 4           1             4    7     1      -0.5274588395E-05       4    7    1        -0.3003088036E-03      0.7655471013E-03

    ------------------------------------------------
       NWT REQUIRED            4 OUTER ITERATIONS 
       AND A TOTAL OF          7 INNER ITERATIONS.
    ------------------------------------------------

 NO OUTPUT CONTROL FOR STRESS PERIOD   49   TIME STEP   23
 
 SOLVING FOR HEAD 
                                                   Max.-Head-Change                         Max.-Flux-Residual
  Residual-Control   Outer-Iter.   Inner-Iter.     Column Row Layer    Maximum-Head-Change  Column Row Layer    Maximum-Flux-Residual          L2-NORM 
          0                 1           2             4    7     1       0.1986523601E-01       4    7    1         0.1041126735E+01      0.2658920654E+01
          0                 2           2             4    7     1      -0.1931305697E-02       4    7    1        -0.1040565484E+00      0.2657976455E+00
          0                 3           2             4    7     1       0.1314155871E-03       4    7    1         0.7278449846E-02      0.1859676404E-01
          0                 4           1             4    7     1      -0.5222589172E-05       4    7    1        -0.2973143196E-03      0.7600168967E-03

    ------------------------------------------------
       NWT REQUIRED            4 OUTER ITERATIONS 
       AND A TOTAL OF          7 INNER ITERATIONS.
    ------------------------------------------------

 NO OUTPUT CONTROL FOR STRESS PERIOD   49   TIME STEP   24
 
 SOLVING FOR HEAD 
                                                   Max.-Head-Change                         Max.-Flux-Residual
  Residual-Control   Outer-Iter.   Inner-Iter.     Column Row Layer    Maximum-Head-Change  Column Row Layer    Maximum-Flux-Residual          L2-NORM 
          0                 1           2             4    7     1       0.1969501229E-01       4    7    1         0.1032154753E+01      0.2640236574E+01
          0                 2           2             4    7     1      -0.1914756360E-02       4    7    1        -0.1031598247E+00      0.2639300915E+00
          0                 3           2             4    7     1       0.1302894868E-03       4    7    1         0.7215726456E-02      0.1846610910E-01
          0                 4           1             4    7     1      -0.5177836656E-05       4    7    1        -0.2947521375E-03      0.7546582406E-03

    ------------------------------------------------
       NWT REQUIRED            4 OUTER ITERATIONS 
       AND A TOTAL OF          7 INNER ITERATIONS.
    ------------------------------------------------

 NO OUTPUT CONTROL FOR STRESS PERIOD   49   TIME STEP   25
 
 SOLVING FOR HEAD 
                                                   Max.-Head-Change                         Max.-Flux-Residual
  Residual-Control   Outer-Iter.   Inner-Iter.     Column Row Layer    Maximum-Head-Change  Column Row Layer    Maximum-Flux-Residual          L2-NORM 
          0                 1           2             4    7     1       0.1952712069E-01       4    7    1         0.1023307015E+01      0.2621786063E+01
          0                 2           2             4    7     1      -0.1898433759E-02       4    7    1        -0.1022755191E+00      0.2620858824E+00
          0                 3           2             4    7     1       0.1291788149E-03       4    7    1         0.7153871678E-02      0.1833709486E-01
          0                 4           1             4    7     1      -0.5133697425E-05       4    7    1        -0.2922254455E-03      0.7494100774E-03

    ------------------------------------------------
       NWT REQUIRED            4 OUTER ITERATIONS 
       AND A TOTAL OF          7 INNER ITERATIONS.
    ------------------------------------------------

 NO OUTPUT CONTROL FOR STRESS PERIOD   49   TIME STEP   26
 
 SOLVING FOR HEAD 
                                                   Max.-Head-Change                         Max.-Flux-Residual
  Residual-Control   Outer-Iter.   Inner-Iter.     Column Row Layer    Maximum-Head-Change  Column Row Layer    Maximum-Flux-Residual          L2-NORM 
          0                 1           2             4    7     1       0.1936163007E-01       4    7    1         0.1014587481E+01      0.2603579985E+01
          0                 2           2             4    7     1      -0.1882344587E-02       4    7    1        -0.1014040273E+00      0.2602661202E+00
          0                 3           2             4    7     1       0.1280840263E-03       4    7    1         0.7092913184E-02      0.1820978422E-01
          0                 4           1             4    7     1      -0.5090189323E-05       4    7    1        -0.2897353609E-03      0.7441735186E-03

    ------------------------------------------------
       NWT REQUIRED            4 OUTER ITERATIONS 
       AND A TOTAL OF          7 INNER ITERATIONS.
    ------------------------------------------------

 NO OUTPUT CONTROL FOR STRESS PERIOD   49   TIME STEP   27
 
 SOLVING FOR HEAD 
                                                   Max.-Head-Change                         Max.-Flux-Residual
  Residual-Control   Outer-Iter.   Inner-Iter.     Column Row Layer    Maximum-Head-Change  Column Row Layer    Maximum-Flux-Residual          L2-NORM 
          0                 1           2             4    7     1       0.1919847983E-01       4    7    1         0.1005992435E+01      0.2585604372E+01
          0                 2           2             4    7     1      -0.1866482951E-02       4    7    1        -0.1005449780E+00      0.2584693798E+00
          0                 3           2             4    7     1       0.1270047211E-03       4    7    1         0.7032825026E-02      0.1808409989E-01
          0                 4           1             4    7     1      -0.5047296694E-05       4    7    1        -0.2872808409E-03      0.7390570753E-03

    ------------------------------------------------
       NWT REQUIRED            4 OUTER ITERATIONS 
       AND A TOTAL OF          7 INNER ITERATIONS.
    ------------------------------------------------

 NO OUTPUT CONTROL FOR STRESS PERIOD   49   TIME STEP   28
 
 SOLVING FOR HEAD 
                                                   Max.-Head-Change                         Max.-Flux-Residual
  Residual-Control   Outer-Iter.   Inner-Iter.     Column Row Layer    Maximum-Head-Change  Column Row Layer    Maximum-Flux-Residual          L2-NORM 
          0                 1           2             4    7     1       0.1903747193E-01       4    7    1         0.9975114431E+00      0.2567855861E+01
          0                 2           2             4    7     1      -0.1850829599E-02       4    7    1        -0.9969732822E-01      0.2566953477E+00
          0                 3           2             4    7     1       0.1259395884E-03       4    7    1         0.6973534247E-02      0.1795998380E-01
          0                 4           1             4    7     1      -0.5004967038E-05       4    7    1        -0.2848588804E-03      0.7339708675E-03

    ------------------------------------------------
       NWT REQUIRED            4 OUTER ITERATIONS 
       AND A TOTAL OF          7 INNER ITERATIONS.
    ------------------------------------------------

 NO OUTPUT CONTROL FOR STRESS PERIOD   49   TIME STEP   29
 
 SOLVING FOR HEAD 
                                                   Max.-Head-Change                         Max.-Flux-Residual
  Residual-Control   Outer-Iter.   Inner-Iter.     Column Row Layer    Maximum-Head-Change  Column Row Layer    Maximum-Flux-Residual          L2-NORM 
          0                 1           2             4    7     1       0.1887855289E-01       4    7    1         0.9891415275E+00      0.2550324108E+01
          0                 2           2             4    7     1      -0.1835379332E-02       4    7    1        -0.9886078037E-01      0.2549429618E+00
          0                 3           2             4    7     1       0.1248882747E-03       4    7    1         0.6915020030E-02      0.1783739476E-01
          0                 4           1             4    7     1      -0.4963186541E-05       4    7    1        -0.2824686374E-03      0.7289676179E-03

    ------------------------------------------------
       NWT REQUIRED            4 OUTER ITERATIONS 
       AND A TOTAL OF          7 INNER ITERATIONS.
    ------------------------------------------------

 NO OUTPUT CONTROL FOR STRESS PERIOD   49   TIME STEP   30



 STREAM LISTING     PERIOD     49   STEP       30

 LAYER ROW COL. STREAM  RCH.  FLOW INTO     FLOW TO   FLOW OUT OF   OVRLND.     DIRECT     STREAM       STREAM     STREAM     STREAM   STREAMBED  STREAMBED
                SEG.NO.  NO.  STRM. RCH.    AQUIFER    STRM. RCH.    RUNOFF     PRECIP       ET          HEAD       DEPTH      WIDTH   CONDCTNC.   GRADIENT

   1    1    1     1     1    1.9000E+01  2.1427E-01   1.8786E+01  0.000E+00  0.000E+00  0.000E+00  1.09413E+03  1.082E+00  1.166E+01  5.249E-02  1.361E+00
   1    2    2     1     2    1.8786E+01  3.3054E-01   1.8455E+01  0.000E+00  0.000E+00  0.000E+00  1.08914E+03  1.077E+00  1.158E+01  8.107E-02  1.359E+00
   1    3    3     1     3    1.8455E+01  2.8064E-01   1.8175E+01  0.000E+00  0.000E+00  0.000E+00  1.08349E+03  1.072E+00  1.149E+01  6.892E-02  1.357E+00
   1    3    4     1     4    1.8175E+01  2.5740E-01   1.7917E+01  0.000E+00  0.000E+00  0.000E+00  1.07848E+03  1.068E+00  1.140E+01  6.328E-02  1.356E+00
   1    4    5     2     1    1.5917E+01  3.0542E-01   1.5612E+01  0.000E+00  0.000E+00  0.000E+00  1.07285E+03  9.157E-01  1.200E+01  7.800E-02  1.305E+00
   1    5    6     2     2    1.5612E+01  2.3438E-01   1.5377E+01  0.000E+00  0.000E+00  0.000E+00  1.06742E+03  9.063E-01  1.200E+01  6.000E-02  1.302E+00
   1    6    6     2     3    1.5377E+01  2.3388E-01   1.5143E+01  0.000E+00  0.000E+00  0.000E+00  1.06269E+03  8.980E-01  1.200E+01  6.000E-02  1.299E+00
   1    7    6     2     4    1.5143E+01  2.3338E-01   1.4910E+01  0.000E+00  0.000E+00  0.000E+00  1.05797E+03  8.897E-01  1.200E+01  6.000E-02  1.297E+00
   1    8    6     2     5    1.4910E+01  2.3289E-01   1.4677E+01  0.000E+00  0.000E+00  0.000E+00  1.05324E+03  8.814E-01  1.200E+01  6.000E-02  1.294E+00
   1    3    5     3     1    2.0000E+00  2.8252E-01   1.7175E+00  0.000E+00  0.000E+00  0.000E+00  1.07555E+03  1.909E+00  9.636E+00  7.227E-02  1.955E+00
   1    3    6     3     2    1.7175E+00  2.4905E-01   1.4684E+00  0.000E+00  0.000E+00  0.000E+00  1.07264E+03  1.727E+00  8.909E+00  6.682E-02  1.864E+00
   1    3    7     3     3    1.4684E+00  1.9718E-01   1.2712E+00  0.000E+00  0.000E+00  0.000E+00  1.06987E+03  1.555E+00  8.218E+00  5.547E-02  1.777E+00
   1    4    8     3     4    1.2712E+00  2.2567E-01   1.0456E+00  0.000E+00  0.000E+00  0.000E+00  1.06682E+03  1.364E+00  7.455E+00  6.709E-02  1.682E+00
   1    5    8     3     5    1.0456E+00  1.5790E-01   8.8768E-01  0.000E+00  0.000E+00  0.000E+00  1.06362E+03  1.164E+00  6.655E+00  4.991E-02  1.582E+00
   1    6    8     3     6    8.8768E-01  5.5980E-02   8.3170E-01  0.000E+00  0.000E+00  0.000E+00  1.06158E+03  1.036E+00  6.145E+00  1.844E-02  1.518E+00
   1    5   10     4     1    1.0000E+01  9.0919E-02   9.9091E+00  0.000E+00  0.000E+00  0.000E+00  1.07836E+03  6.368E-01  1.000E+01  2.500E-02  1.212E+00
   1    5    9     4     2    9.9091E+00  1.8158E-01   9.7275E+00  0.000E+00  0.000E+00  0.000E+00  1.07154E+03  6.315E-01  1.000E+01  5.000E-02  1.211E+00
   1    6    8     4     3    9.7275E+00  1.2689E-01   9.6006E+00  0.000E+00  0.000E+00  0.000E+00  1.06381E+03  6.256E-01  1.000E+01  3.500E-02  1.209E+00
   1    6    8     5     1    1.0432E+01  2.2686E-01   1.0205E+01  0.000E+00  0.000E+00  0.000E+00  1.05868E+03  6.790E-01  1.542E+01  6.166E-02  1.226E+00
   1    7    7     5     2    1.0205E+01  2.7894E-01   9.9265E+00  0.000E+00  0.000E+00  0.000E+00  1.05417E+03  6.732E-01  1.519E+01  7.594E-02  1.224E+00
   1    8    7     5     3    9.9265E+00  1.9221E-01   9.7343E+00  0.000E+00  0.000E+00  0.000E+00  1.04992E+03  6.676E-01  1.497E+01  5.241E-02  1.223E+00
   1    8    6     5     4    9.7343E+00  1.3577E-01   9.5985E+00  0.000E+00  0.000E+00  0.000E+00  1.04691E+03  6.637E-01  1.482E+01  3.706E-02  1.221E+00
   1    9    6     6     1    2.4276E+01  2.5176E-01   2.4024E+01  0.000E+00  0.000E+00  0.000E+00  1.04392E+03  1.196E+00  1.200E+01  6.000E-02  1.399E+00
   1   10    7     6     2    2.4024E+01  2.5131E-01   2.3773E+01  0.000E+00  0.000E+00  0.000E+00  1.03937E+03  1.188E+00  1.200E+01  6.000E-02  1.396E+00
   1   11    7     6     3    2.3773E+01  2.5086E-01   2.3522E+01  0.000E+00  0.000E+00  0.000E+00  1.03482E+03  1.181E+00  1.200E+01  6.000E-02  1.394E+00
   1   12    7     6     4    2.3522E+01  2.5041E-01   2.3271E+01  0.000E+00  0.000E+00  0.000E+00  1.03026E+03  1.173E+00  1.200E+01  6.000E-02  1.391E+00
   1   13    7     6     5    2.3271E+01  1.2808E-02   2.3259E+01  0.000E+00  0.000E+00  0.000E+00  1.02708E+03  1.169E+00  1.200E+01  2.400E-02  1.779E-01
   1   14    9     7     1    1.5000E+02  1.3831E+00   1.4862E+02  0.000E+00  0.000E+00  0.000E+00  1.03987E+03  2.288E+00  5.529E+01  5.593E-01  8.243E-01
   1   13    8     7     2    1.4862E+02  1.9990E+00   1.4662E+02  0.000E+00  0.000E+00  0.000E+00  1.03478E+03  2.279E+00  5.525E+01  6.147E-01  1.084E+00
   1   13    7     7     3    1.4662E+02  1.7549E+00   1.4486E+02  0.000E+00  0.000E+00  0.000E+00  1.02969E+03  2.269E+00  5.521E+01  5.584E-01  1.048E+00
   1   13    6     8     1    1.6812E+02  1.1885E+00   1.6693E+02  0.000E+00  0.000E+00  0.000E+00  1.02481E+03  2.936E+00  4.257E+01  4.338E-01  9.132E-01
   1   13    5     8     2    1.6693E+02  4.2499E-01   1.6651E+02  0.000E+00  0.000E+00  0.000E+00  1.01856E+03  2.931E+00  4.250E+01  4.330E-01  3.271E-01
   1   13    4     8     3    1.6651E+02 -1.5909E+00   1.6810E+02  0.000E+00  0.000E+00  0.000E+00  1.01231E+03  2.935E+00  4.255E+01  4.336E+00 -1.223E-01
   1   13    3     8     4    1.6810E+02 -3.2433E+00   1.7134E+02  0.000E+00  0.000E+00  0.000E+00  1.00608E+03  2.950E+00  4.278E+01  4.359E+00 -2.480E-01
   1   13    2     8     5    1.7134E+02 -2.4815E+00   1.7382E+02  0.000E+00  0.000E+00  0.000E+00  9.99844E+02  2.969E+00  4.305E+01  4.387E+00 -1.886E-01
   1   13    1     8     6    1.7382E+02 -1.9566E+00   1.7578E+02  0.000E+00  0.000E+00  0.000E+00  9.94858E+02  2.983E+00  4.326E+01  2.645E+00 -2.466E-01





UNSATURATED ZONE PACKAGE VOLUMETRIC BUDGET FOR  TIME STEP    30 STRESS PERIOD   49
  ------------------------------------------------------------------------------



     CUMULATIVE VOLUMES      L**3       RATES FOR THIS TIME STEP      L**3/T
     ------------------                 ------------------------

           IN:                                      IN:
           ---                                      ---
        INFILTRATION =  2437709656.6401          INFILTRATION =           4.4075

          OUT:                                     OUT:
          ----                                     ----
              UZF ET =  2001759509.6936                UZF ET =           0.7250
        UZF RECHARGE =   296296194.6813          UZF RECHARGE =           0.0046

            IN - OUT =   139653952.2652              IN - OUT =           3.6779

          STORAGE:                                 STORAGE:
          --------                                 --------
      STORAGE CHANGE =   139655456.5230        STORAGE CHANGE =           3.6779

 PERCENT DISCREPANCY IS DIFFERENCE BETWEEN IN-OUT MINUS CHANGE IN STORAGE
 DIVIDED BY THE AVERAGE OF IN AND OUT TIMES 100

 PERCENT DISCREPANCY =          -0.00     PERCENT DISCREPANCY =           0.00






1
  VOLUMETRIC BUDGET FOR AGRICULTURAL FIELDS AT TIME STEP   30, STRESS PERIOD  49
  ------------------------------------------------------------------------------

     CUMULATIVE VOLUMES      L**3       RATES FOR THIS TIME STEP      L**3/T
     ------------------                 ------------------------

           IN:                                      IN:
           ---                                      ---
               AG WELLS  =  1881236224.0000                 AG WELLS  =           0.0000
      DIVERSION SEGMENTS =           0.0000        DIVERSION SEGMENTS =           0.0000
           GW IRRIGATION =           0.0000             GW IRRIGATION =           0.0000
           SW IRRIGATION =           0.0000             SW IRRIGATION =           0.0000
        SYSTEM LOSSES GW =           0.0000          SYSTEM LOSSES GW =           0.0000
        SYSTEM LOSSES SW =           0.0000          SYSTEM LOSSES SW =           0.0000

                TOTAL IN =  1881236224.0000                  TOTAL IN =           0.0000

          OUT:                                     OUT:
          ----                                     ----
               AG WELLS  =           0.0000                 AG WELLS  =           0.0000
      DIVERSION SEGMENTS =           0.0000        DIVERSION SEGMENTS =           0.0000
           GW IRRIGATION =  1881236224.0000             GW IRRIGATION =           0.0000
           SW IRRIGATION =           0.0000             SW IRRIGATION =           0.0000
        SYSTEM LOSSES GW =           0.0000          SYSTEM LOSSES GW =           0.0000
        SYSTEM LOSSES SW =           0.0000          SYSTEM LOSSES SW =           0.0000

               TOTAL OUT =  1881236224.0000                 TOTAL OUT =           0.0000

                IN - OUT =           0.0000                  IN - OUT =           0.0000

     PERCENT DISCREPANCY =           0.00         PERCENT DISCREPANCY =           0.00



1
  VOLUMETRIC BUDGET FOR ENTIRE MODEL AT END OF TIME STEP   30, STRESS PERIOD  49
  ------------------------------------------------------------------------------

     CUMULATIVE VOLUMES      L**3       RATES FOR THIS TIME STEP      L**3/T
     ------------------                 ------------------------

           IN:                                      IN:
           ---                                      ---
             STORAGE     =  2421474816.0000               STORAGE     =           6.3809
       CONSTANT HEAD     =           0.0000         CONSTANT HEAD     =           0.0000
     HEAD DEP BOUNDS     =    36184572.0000       HEAD DEP BOUNDS     =           0.2890
      STREAM LEAKAGE     =  1549855360.0000        STREAM LEAKAGE     =          12.4919
        UZF RECHARGE     =   296295936.0000          UZF RECHARGE     =       4.6014E-03
               GW ET     =           0.0000                 GW ET     =           0.0000
     SURFACE LEAKAGE     =           0.0000       SURFACE LEAKAGE     =           0.0000
           AG WELLS      =           0.0000             AG WELLS      =           0.0000

                TOTAL IN =  4303810560.0000                  TOTAL IN =          19.1664

          OUT:                                     OUT:
          ----                                     ----
             STORAGE     =  1094880128.0000               STORAGE     =           9.6055
       CONSTANT HEAD     =           0.0000         CONSTANT HEAD     =           0.0000
     HEAD DEP BOUNDS     =    36830020.0000       HEAD DEP BOUNDS     =           0.2887
      STREAM LEAKAGE     =  1273561344.0000        STREAM LEAKAGE     =           9.2722
        UZF RECHARGE     =           0.0000          UZF RECHARGE     =           0.0000
               GW ET     =    17288296.0000                 GW ET     =           0.0000
     SURFACE LEAKAGE     =           0.0000       SURFACE LEAKAGE     =           0.0000
           AG WELLS      =  1881236224.0000             AG WELLS      =           0.0000

               TOTAL OUT =  4303796224.0000                 TOTAL OUT =          19.1664

                IN - OUT =       14336.0000                  IN - OUT =       1.5259E-05

     PERCENT DISCREPANCY =           0.00         PERCENT DISCREPANCY =           0.00






         TIME SUMMARY AT END OF TIME STEP   30 IN STRESS PERIOD   49
                    SECONDS     MINUTES      HOURS       DAYS        YEARS
                    -----------------------------------------------------------
   TIME STEP LENGTH  87667.      1461.1      24.352      1.0147     2.77799E-03
 STRESS PERIOD TIME 2.63000E+06  43833.      730.56      30.440     8.33397E-02
         TOTAL TIME 1.26325E+08 2.10542E+06  35090.      1462.1      4.0030    
1

 Run end date and time (yyyy/mm/dd hh:mm:ss): 2020/03/03 10:39:13
 Elapsed run time: 11.531 Seconds

