                                  MODFLOW-NWT-SWR1 
      U.S. GEOLOGICAL SURVEY MODULAR FINITE-DIFFERENCE GROUNDWATER-FLOW MODEL
                            VERSION 1.2.0 03/01/2020
                    BASED ON MODFLOW-2005 VERSION 1.12.00 02/03/2017

 LIST FILE: ./Ag_EP1b/output/Agwater1b_low.lst
                         UNIT    9

 OPENING ./Ag_EP1b/input/Agwater1.ba6
 FILE TYPE:BAS6   UNIT   75   STATUS:OLD    
 FORMAT:FORMATTED              ACCESS:SEQUENTIAL          

 OPENING ./Ag_EP1b/input/Agwater1.upw
 FILE TYPE:UPW   UNIT    7   STATUS:OLD    
 FORMAT:FORMATTED              ACCESS:SEQUENTIAL          

 OPENING ./Ag_EP1b/input/Agwater1.dis
 FILE TYPE:DIS   UNIT    8   STATUS:OLD    
 FORMAT:FORMATTED              ACCESS:SEQUENTIAL          

 OPENING ./Ag_EP1b/input/Agwater1.nwt
 FILE TYPE:NWT   UNIT   13   STATUS:OLD    
 FORMAT:FORMATTED              ACCESS:SEQUENTIAL          

 OPENING ./Ag_EP1b/input/Agwater1.oc
 FILE TYPE:OC   UNIT   14   STATUS:OLD    
 FORMAT:FORMATTED              ACCESS:SEQUENTIAL          

 OPENING ./Ag_EP1b/input/Agwater1.sfr
 FILE TYPE:SFR   UNIT   15   STATUS:OLD    
 FORMAT:FORMATTED              ACCESS:SEQUENTIAL          

 OPENING ./Ag_EP1b/input/Agwater1.ghb
 FILE TYPE:GHB   UNIT   17   STATUS:OLD    
 FORMAT:FORMATTED              ACCESS:SEQUENTIAL          

 OPENING ./Ag_EP1b/input/Agwater1_low.uzf
 FILE TYPE:UZF   UNIT   19   STATUS:OLD    
 FORMAT:FORMATTED              ACCESS:SEQUENTIAL          

 OPENING ./Ag_EP1b/input/Agwater1.gag
 FILE TYPE:GAGE   UNIT   32   STATUS:OLD    
 FORMAT:FORMATTED              ACCESS:SEQUENTIAL          

 OPENING ./Ag_EP1b/input/seg1.tab
 FILE TYPE:DATA   UNIT   55   STATUS:UNKNOWN
 FORMAT:FORMATTED              ACCESS:SEQUENTIAL          

 OPENING ./Ag_EP1b/input/seg9.tab
 FILE TYPE:DATA   UNIT   56   STATUS:UNKNOWN
 FORMAT:FORMATTED              ACCESS:SEQUENTIAL          

 OPENING ./Ag_EP1b/input/Agwater1.ag
 FILE TYPE:AG   UNIT   57   STATUS:OLD    
 FORMAT:FORMATTED              ACCESS:SEQUENTIAL          

 OPENING ./Ag_EP1b/output/Agwater1b_low.hed
 FILE TYPE:DATA   UNIT   62   STATUS:UNKNOWN
 FORMAT:FORMATTED              ACCESS:SEQUENTIAL          

 OPENING ./Ag_EP1b/output/Agwater1GW_low.ts5
 FILE TYPE:DATA   UNIT  105   STATUS:UNKNOWN
 FORMAT:FORMATTED              ACCESS:SEQUENTIAL          

 OPENING ./Ag_EP1b/output/Agwater1GW_ET_low.ts5
 FILE TYPE:DATA   UNIT  106   STATUS:UNKNOWN
 FORMAT:FORMATTED              ACCESS:SEQUENTIAL          

 OPENING ./Ag_EP1b/output/Agwater1GW_ET_low.all
 FILE TYPE:DATA   UNIT  107   STATUS:UNKNOWN
 FORMAT:FORMATTED              ACCESS:SEQUENTIAL          

 OPENING ./Ag_EP1b/output/Agwater1GW_low.all
 FILE TYPE:DATA   UNIT  108   STATUS:UNKNOWN
 FORMAT:FORMATTED              ACCESS:SEQUENTIAL          

 OPENING ./Ag_EP1b/output/Agwater1_low.uzfot
 FILE TYPE:DATA(BINARY)   UNIT   61   STATUS:UNKNOWN
 FORMAT:BINARY                 ACCESS:SEQUENTIAL          

 OPENING ./Ag_EP1b/output/Agwater1cbc_low.unf
 FILE TYPE:DATA(BINARY)   UNIT  102   STATUS:UNKNOWN
 FORMAT:BINARY                 ACCESS:SEQUENTIAL          

 OPENING ./Ag_EP1b/output/Agwater1_low.uzf1
 FILE TYPE:DATA   UNIT   65   STATUS:UNKNOWN
 FORMAT:FORMATTED              ACCESS:SEQUENTIAL          

 OPENING ./Ag_EP1b/output/Agwater1_low.uzf2
 FILE TYPE:DATA   UNIT   66   STATUS:UNKNOWN
 FORMAT:FORMATTED              ACCESS:SEQUENTIAL          

 OPENING ./Ag_EP1b/output/Agwater1_low.uzf3
 FILE TYPE:DATA   UNIT   67   STATUS:UNKNOWN
 FORMAT:FORMATTED              ACCESS:SEQUENTIAL          

 OPENING ./Ag_EP1b/output/Agwater1_low.uzf4
 FILE TYPE:DATA   UNIT   68   STATUS:UNKNOWN
 FORMAT:FORMATTED              ACCESS:SEQUENTIAL          

 OPENING ./Ag_EP1b/output/Agwater1_low.flw
 FILE TYPE:DATA   UNIT   81   STATUS:UNKNOWN
 FORMAT:FORMATTED              ACCESS:SEQUENTIAL          

 OPENING ./Ag_EP1b/output/Agwater1_low.sg1
 FILE TYPE:DATA   UNIT   83   STATUS:UNKNOWN
 FORMAT:FORMATTED              ACCESS:SEQUENTIAL          

 OPENING ./Ag_EP1b/output/Agwater1_low.sg2
 FILE TYPE:DATA   UNIT   84   STATUS:UNKNOWN
 FORMAT:FORMATTED              ACCESS:SEQUENTIAL          

 OPENING ./Ag_EP1b/output/Agwater1_low.sg3
 FILE TYPE:DATA   UNIT   85   STATUS:UNKNOWN
 FORMAT:FORMATTED              ACCESS:SEQUENTIAL          

 OPENING ./Ag_EP1b/output/Agwater1_low.sg4
 FILE TYPE:DATA   UNIT   86   STATUS:UNKNOWN
 FORMAT:FORMATTED              ACCESS:SEQUENTIAL          

 OPENING ./Ag_EP1b/output/Agwater1_low.sg5
 FILE TYPE:DATA   UNIT   87   STATUS:UNKNOWN
 FORMAT:FORMATTED              ACCESS:SEQUENTIAL          

 OPENING ./Ag_EP1b/output/Agwater1_low.sg6
 FILE TYPE:DATA   UNIT   88   STATUS:UNKNOWN
 FORMAT:FORMATTED              ACCESS:SEQUENTIAL          

 OPENING ./Ag_EP1b/output/Agwater1_low.sg7
 FILE TYPE:DATA   UNIT   89   STATUS:UNKNOWN
 FORMAT:FORMATTED              ACCESS:SEQUENTIAL          

 OPENING ./Ag_EP1b/output/Agwater1_low.sg8
 FILE TYPE:DATA   UNIT   90   STATUS:UNKNOWN
 FORMAT:FORMATTED              ACCESS:SEQUENTIAL          

 BAS -- BASIC PACKAGE, VERSION 1.2.0, 3/01/2020 INPUT READ FROM UNIT   75
 
 MODFLOW was compiled using mixed precision
 Precision of REAL variables:           6
 Precision of DOUBLE PRECISION variables:          15

 DISCRETIZATION INPUT DATA READ FROM UNIT    8
 #Test problem 2-- Discretization input
 #Example problem using the UZF1 Package
    1 LAYERS        15 ROWS        10 COLUMNS
   49 STRESS PERIOD(S) IN SIMULATION
 MODEL TIME UNIT IS SECONDS
 MODEL LENGTH UNIT IS FEET
  Confining bed flag for each layer:
   0

                     DELR =   5000.00    

                     DELC =   5000.00    



           TOP ELEVATION OF LAYER 1
 READING ON UNIT    8 WITH FORMAT: (10F7.0)            

            1           2           3           4           5           6           7           8           9          10
 ........................................................................................................................
   1    1105.       1105.       0.000       0.000       0.000       0.000       0.000       0.000       0.000       0.000    
   2    1105.       1095.       1105.       0.000       0.000       1100.       1100.       1110.       0.000       0.000    
   3    0.000       1100.       1085.       1080.       1078.       1076.       1073.       1090.       0.000       0.000    
   4    1110.       1100.       1090.       1085.       1076.       1080.       1080.       1070.       1100.       0.000    
   5    1110.       1100.       1085.       1080.       1078.       1074.       1077.       1066.       1075.       1080.    
   6    1105.       1095.       1080.       1077.       1073.       1069.       1070.       1063.       1085.       1095.    
   7    1105.       1090.       1075.       1072.       1070.       1065.       1065.       1069.       1090.       0.000    
   8    0.000       1080.       1070.       1068.       1063.       1060.       1063.       1067.       1090.       0.000    
   9    0.000       1075.       1065.       1062.       1058.       1052.       1055.       1065.       1090.       0.000    
  10    0.000       1070.       1060.       1055.       1046.       1046.       1044.       1060.       1088.       1100.    
  11    0.000       1055.       1050.       1045.       1041.       1042.       1040.       1050.       1075.       0.000    
  12    1027.       1028.       1028.       1032.       1032.       1033.       1032.       1040.       1060.       0.000    
  13    997.0       1004.       1008.       1014.       1020.       1027.       1032.       1038.       1050.       0.000    
  14    0.000       1030.       1040.       1045.       1050.       1050.       1050.       1050.       1044.       0.000    
  15    0.000       0.000       1080.       1080.       1080.       1080.       0.000       0.000       0.000       0.000    



             MODEL LAYER BOTTOM EL. FOR LAYER   1
 READING ON UNIT    8 WITH FORMAT: (10F7.0)            

            1           2           3           4           5           6           7           8           9          10
 ........................................................................................................................
   1    1000.       1000.       0.000       0.000       0.000       0.000       0.000       0.000       0.000       0.000    
   2    1000.       900.0       900.0       0.000       0.000       950.0       950.0       950.0       0.000       0.000    
   3    0.000       850.0       670.0       680.0       680.0       770.0       770.0       890.0       0.000       0.000    
   4    925.0       850.0       650.0       650.0       650.0       680.0       740.0       850.0       950.0       0.000    
   5    925.0       800.0       650.0       600.0       600.0       600.0       650.0       720.0       850.0       950.0    
   6    925.0       800.0       650.0       600.0       550.0       600.0       650.0       720.0       850.0       970.0    
   7    925.0       800.0       650.0       600.0       550.0       600.0       650.0       720.0       950.0       0.000    
   8    0.000       850.0       700.0       650.0       570.0       600.0       700.0       850.0       950.0       0.000    
   9    0.000       850.0       700.0       650.0       540.0       580.0       700.0       850.0       950.0       0.000    
  10    0.000       850.0       700.0       630.0       530.0       580.0       650.0       800.0       900.0       950.0    
  11    0.000       850.0       700.0       620.0       580.0       620.0       700.0       800.0       900.0       0.000    
  12    900.0       830.0       710.0       640.0       600.0       650.0       700.0       800.0       900.0       0.000    
  13    900.0       810.0       750.0       700.0       650.0       700.0       750.0       800.0       900.0       0.000    
  14    0.000       950.0       850.0       850.0       850.0       850.0       850.0       850.0       850.0       0.000    
  15    0.000       0.000       950.0       950.0       950.0       950.0       0.000       0.000       0.000       0.000    


 STRESS PERIOD     LENGTH       TIME STEPS     MULTIPLIER FOR DELT    SS FLAG
 ----------------------------------------------------------------------------
        1         86400.00          1                    1.000         SS
        2         2630000.         30                    1.000         TR
        3         2630000.         30                    1.000         TR
        4         2630000.         30                    1.000         TR
        5         2630000.         30                    1.000         TR
        6         2630000.         30                    1.000         TR
        7         2630000.         30                    1.000         TR
        8         2630000.         30                    1.000         TR
        9         2630000.         30                    1.000         TR
       10         2630000.         30                    1.000         TR
       11         2630000.         30                    1.000         TR
       12         2630000.         30                    1.000         TR
       13         2630000.         30                    1.000         TR
       14         2630000.         30                    1.000         TR
       15         2630000.         30                    1.000         TR
       16         2630000.         30                    1.000         TR
       17         2630000.         30                    1.000         TR
       18         2630000.         30                    1.000         TR
       19         2630000.         30                    1.000         TR
       20         2630000.         30                    1.000         TR
       21         2630000.         30                    1.000         TR
       22         2630000.         30                    1.000         TR
       23         2630000.         30                    1.000         TR
       24         2630000.         30                    1.000         TR
       25         2630000.         30                    1.000         TR
       26         2630000.         30                    1.000         TR
       27         2630000.         30                    1.000         TR
       28         2630000.         30                    1.000         TR
       29         2630000.         30                    1.000         TR
       30         2630000.         30                    1.000         TR
       31         2630000.         30                    1.000         TR
       32         2630000.         30                    1.000         TR
       33         2630000.         30                    1.000         TR
       34         2630000.         30                    1.000         TR
       35         2630000.         30                    1.000         TR
       36         2630000.         30                    1.000         TR
       37         2630000.         30                    1.000         TR
       38         2630000.         30                    1.000         TR
       39         2630000.         30                    1.000         TR
       40         2630000.         30                    1.000         TR
       41         2630000.         30                    1.000         TR
       42         2630000.         30                    1.000         TR
       43         2630000.         30                    1.000         TR
       44         2630000.         30                    1.000         TR
       45         2630000.         30                    1.000         TR
       46         2630000.         30                    1.000         TR
       47         2630000.         30                    1.000         TR
       48         2630000.         30                    1.000         TR
       49         2630000.         30                    1.000         TR

 COMBINED STEADY-STATE AND TRANSIENT SIMULATION



 
 #Test Simulation 2-- Example problem using the UZF1 Package                     
 #Modified from example Problem 1 of SFR1 documentation report                   
 THE FREE FORMAT OPTION HAS BEEN SELECTED



                     BOUNDARY ARRAY FOR LAYER   1
 READING ON UNIT   75 WITH FORMAT: (20I4)              

                1           2           3           4           5           6           7           8           9          10
 ............................................................................................................................
   1            1           1           0           0           0           0           0           0           0           0
   2            1           1           1           0           0           1           1           1           0           0
   3            0           1           1           1           1           1           1           1           0           0
   4            1           1           1           1           1           1           1           1           1           0
   5            1           1           1           1           1           1           1           1           1           1
   6            1           1           1           1           1           1           1           1           1           1
   7            1           1           1           1           1           1           1           1           1           0
   8            0           1           1           1           1           1           1           1           1           0
   9            0           1           1           1           1           1           1           1           1           0
  10            0           1           1           1           1           1           1           1           1           1
  11            0           1           1           1           1           1           1           1           1           0
  12            1           1           1           1           1           1           1           1           1           0
  13            1           1           1           1           1           1           1           1           1           0
  14            0           1           1           1           1           1           1           1           1           0
  15            0           0           1           1           1           1           0           0           0           0

 AQUIFER HEAD WILL BE SET TO   6999.0     AT ALL NO-FLOW NODES (IBOUND=0).



                       INITIAL HEAD FOR LAYER   1
 READING ON UNIT   75 WITH FORMAT: (10F8.0)            

            1           2           3           4           5           6           7           8           9          10
 ........................................................................................................................
   1    1093.       1089.       6999.       6999.       6999.       6999.       6999.       6999.       6999.       6999.    
   2    1090.       1087.       1081.       6999.       6999.       1072.       1071.       1071.       6999.       6999.    
   3    6999.       1079.       1078.       1074.       1072.       1071.       1069.       1068.       6999.       6999.    
   4    1069.       1071.       1070.       1067.       1065.       1064.       1064.       1066.       1066.       6999.    
   5    1065.       1064.       1063.       1062.       1061.       1061.       1060.       1062.       1066.       1068.    
   6    1060.       1058.       1057.       1056.       1056.       1057.       1057.       1059.       1062.       1066.    
   7    1056.       1053.       1052.       1051.       1051.       1052.       1053.       1055.       1056.       6999.    
   8    6999.       1046.       1046.       1046.       1046.       1046.       1048.       1050.       1050.       6999.    
   9    6999.       1039.       1039.       1039.       1040.       1041.       1042.       1043.       1044.       6999.    
  10    6999.       1031.       1032.       1033.       1034.       1035.       1037.       1038.       1039.       1042.    
  11    6999.       1021.       1023.       1027.       1029.       1030.       1032.       1034.       1036.       6999.    
  12    1001.       1009.       1015.       1020.       1023.       1026.       1029.       1030.       1034.       6999.    
  13    994.5      1000.0       1007.       1013.       1019.       1024.       1029.       1034.       1036.       6999.    
  14    6999.       1004.       1009.       1014.       1019.       1024.       1029.       1035.       1039.       6999.    
  15    6999.       6999.       1012.       1015.       1019.       1022.       6999.       6999.       6999.       6999.    

 OUTPUT CONTROL IS SPECIFIED ONLY AT TIME STEPS FOR WHICH OUTPUT IS DESIRED
 HEADS WILL BE SAVED WITH FORMAT: (10F10.3)           
 SAVED HEADS WILL BE LABELED
 COMPACT CELL-BY-CELL BUDGET FILES WILL BE WRITTEN
 HEAD PRINT FORMAT CODE IS   4    DRAWDOWN PRINT FORMAT CODE IS   0
 HEADS WILL BE SAVED ON UNIT   62    DRAWDOWNS WILL BE SAVED ON UNIT    0
 # NWT Input File
 # Test Problem 3 for MODFLOW-NWT
 #HEADTOL  FLUXTOL MAXITEROUT THICKFACT LINMETH IPRNWT IBOTAV OPTIONS DBDREDUCE DBDINCREASE DBDGAMMA MOMFACT BACKFLAG MAXBACKITER BACKTOL BACKREDUCE

 NWT1 -- Newton Solver, VERSION 1.2.0, 3/01/2020
         INPUT READ FROM UNIT 13

 SPECIFIED OPTION:
 SOLVER INPUT VALUES ARE SPECIFIED BY USER
 ***XMD linear solver will be used***
 
   CONVERGENCE CRITERION OF   0.100000E-03 FOR HEAD SOLUTION
   AND A TOLERANCE OF   0.100000E+03 FOR FLOW SOLUTION AND 
   A MAXIMUM OF   500 OUTER ITERATIONS. 


   D-B-D REDUCTION FACTOR OF    0.970000E+00 AND 
   A D-B-D INCREASE FACTOR OF    0.100000E-04 AND 
   A D-B-D RELAXATION OF    0.000000E+00 AND 
   A MOMENTUM FACTOR OF    0.100000E+00 .


 ***BACKTRACKING IS INACTIVE***
 XMD -- LINEAR SOLUTION BY XMD PACKAGE VERSION 1.30
     BY MOTOMU IBARAKI, OHIO STATE UNIVERSITY, COLOMBUS, OH
                 INPUT READ FROM UNIT 13
 ACCELERATION METHOD                    (IACL) =         1
 NODE ORDERING FLAG                   (NORDER) =         0
 LEVEL OF FILL                         (LEVEL) =         7
 MAXIMUM NUMBER OF ORTHOGONALIZATIONS  (NORTH) =         7
 INDEX FOR USING REDUCED SYSTEM      (IREDSYS) =         1
 RESID. REDUCTION CONVERGE CRITERION  (RRCTOL) =  0.000000E+00
 INDEX FOR USING DROP TOLERANCE     (IDROPTOL) =         1
 DROP TOLERANCE VALUE                  (EPSRN) =  0.500000E-02
 CONVERGENCE CRITERIA OF           (HCLOSEXMD) =  0.100000E-03
 MAX. NUMBER OF LINEAR ITERATIONS  (MXITERXMD) =        50


 UPW1 -- UPSTREAM WEIGHTING FLOW PACKAGE, VERSION 1.2.0, 3/01/2020
         INPUT READ FROM UNIT  7

 #Layer-Property Flow Package input for test simulation 2
 CELL-BY-CELL FLOWS WILL BE SAVED ON UNIT  102
 No named parameters

   LAYER FLAGS:
 LAYER       LAYTYP          LAYAVG    CHANI           LAYVKA           LAYWET
 ---------------------------------------------------------------------------
    1             1             0     1.000E+00             0             0

   INTERPRETATION OF LAYER FLAGS:
                        INTERBLOCK     HORIZONTAL    DATA IN
         LAYER TYPE   TRANSMISSIVITY   ANISOTROPY   ARRAY VKA   WETTABILITY
 LAYER   (LAYTYP)        (LAYAVG)      (CHANI)     (LAYVKA)       (LAYWET)
 ---------------------------------------------------------------------------
    1   CONVERTIBLE      HARMONIC     1.000E+00    VERTICAL K  NON-WETTABLE



              HYD. COND. ALONG ROWS FOR LAYER   1
 READING ON UNIT    7 WITH FORMAT: (10F5.0)            

            1           2           3           4           5           6           7           8           9          10
 ........................................................................................................................
   1   2.0000E-03  2.0000E-03   0.000       0.000       0.000       0.000       0.000       0.000       0.000       0.000    
   2   4.0000E-04  2.0000E-03  2.0000E-03   0.000       0.000      4.0000E-04  4.0000E-04  4.0000E-04   0.000       0.000    
   3    0.000      4.0000E-04  2.0000E-03  2.0000E-03  4.0000E-04  4.0000E-04  4.0000E-04  4.0000E-04   0.000       0.000    
   4   4.0000E-04  4.0000E-04  4.0000E-04  2.0000E-03  2.0000E-03  2.0000E-03  4.0000E-04  4.0000E-04  4.0000E-04   0.000    
   5   4.0000E-04  4.0000E-04  4.0000E-04  2.0000E-03  2.0000E-03  2.0000E-03  2.0000E-03  2.0000E-03  2.0000E-03  2.0000E-03
   6   4.0000E-04  4.0000E-04  4.0000E-04  2.0000E-03  2.0000E-03  2.0000E-03  2.0000E-03  2.0000E-03  4.0000E-04  4.0000E-04
   7   4.0000E-04  4.0000E-04  4.0000E-04  2.0000E-03  2.0000E-03  2.0000E-03  2.0000E-03  2.0000E-03  4.0000E-04   0.000    
   8    0.000      4.0000E-04  4.0000E-04  2.0000E-03  2.0000E-03  2.0000E-03  2.0000E-03  4.0000E-04  4.0000E-04   0.000    
   9    0.000      4.0000E-04  4.0000E-04  2.0000E-03  2.0000E-03  2.0000E-03  2.0000E-03  4.0000E-04  4.0000E-04   0.000    
  10    0.000      4.0000E-04  4.0000E-04  2.0000E-03  2.0000E-03  2.0000E-03  2.0000E-03  4.0000E-04  4.0000E-04  4.0000E-04
  11    0.000      4.0000E-04  4.0000E-04  2.0000E-03  2.0000E-03  2.0000E-03  2.0000E-03  4.0000E-04  4.0000E-04   0.000    
  12   4.0000E-04  4.0000E-04  2.0000E-03  2.0000E-03  2.0000E-03  2.0000E-03  2.0000E-03  4.0000E-04  4.0000E-04   0.000    
  13   2.0000E-03  2.0000E-03  2.0000E-03  2.0000E-03  2.0000E-03  2.0000E-03  2.0000E-03  2.0000E-03  2.0000E-03   0.000    
  14    0.000      4.0000E-04  4.0000E-04  4.0000E-04  4.0000E-04  4.0000E-04  4.0000E-04  4.0000E-04  2.0000E-03   0.000    
  15    0.000       0.000      4.0000E-04  4.0000E-04  4.0000E-04  4.0000E-04   0.000       0.000       0.000       0.000    

      VERTICAL HYD. COND. =  1.000000E-06 FOR LAYER   1

         SPECIFIC STORAGE =  1.000000E-06 FOR LAYER   1



                     SPECIFIC YIELD FOR LAYER   1
 READING ON UNIT    7 WITH FORMAT: (10F5.0)            

            1           2           3           4           5           6           7           8           9          10
 ........................................................................................................................
   1   0.2000      0.2000       0.000       0.000       0.000       0.000       0.000       0.000       0.000       0.000    
   2   0.1000      0.2000      0.2000       0.000       0.000      0.1000      0.1000      0.1000       0.000       0.000    
   3    0.000      0.1000      0.2000      0.2000      0.1000      0.1000      0.1000      0.1000       0.000       0.000    
   4   0.1000      0.1000      0.1000      0.2000      0.2000      0.2000      0.1000      0.1000      0.1000       0.000    
   5   0.1000      0.1000      0.1000      0.2000      0.2000      0.2000      0.2000      0.2000      0.2000      0.2000    
   6   0.1000      0.1000      0.1000      0.2000      0.2000      0.2000      0.2000      0.2000      0.1000      0.1000    
   7   0.1000      0.1000      0.1000      0.2000      0.2000      0.2000      0.2000      0.2000      0.1000       0.000    
   8    0.000      0.1000      0.1000      0.2000      0.2000      0.2000      0.2000      0.1000      0.1000       0.000    
   9    0.000      0.1000      0.1000      0.2000      0.2000      0.2000      0.2000      0.1000      0.1000       0.000    
  10    0.000      0.1000      0.1000      0.2000      0.2000      0.2000      0.2000      0.1000      0.1000      0.1000    
  11    0.000      0.1000      0.1000      0.2000      0.2000      0.2000      0.2000      0.1000      0.1000       0.000    
  12   0.1000      0.1000      0.2000      0.2000      0.2000      0.2000      0.2000      0.1000      0.1000       0.000    
  13   0.2000      0.2000      0.2000      0.2000      0.2000      0.2000      0.2000      0.2000      0.2000       0.000    
  14    0.000      0.1000      0.1000      0.1000      0.1000      0.1000      0.1000      0.1000      0.2000       0.000    
  15    0.000       0.000      0.1000      0.1000      0.1000      0.1000       0.000       0.000       0.000       0.000    

 GHB -- GENERAL-HEAD BOUNDARY PACKAGE, VERSION 7, 5/2/2005
         INPUT READ FROM UNIT   17
 No named parameters
 MAXIMUM OF      2 ACTIVE GHB CELLS AT ONE TIME
 CELL-BY-CELL FLOWS WILL BE PRINTED WHEN ICBCFL NOT 0


     0 GHB parameters

 SFR7 -- STREAMFLOW ROUTING PACKAGE, VERSION 1.0.5, 2012-04-05
         INPUT READ FROM UNIT  15
 #SFR2 Package input for Testing supplimental pumping and irrigation
 No named parameters

 PROCESSING SFR2 OPTIONS
 
          1 Specified inflow files will be read with a maximum of        759 row entries per file
 
Stream loss will be calculated as a factor of the streambed hydraulic conductivity. Multiplication factor is equal to     0.1000000015E+00

 END PROCESSING SFR2 OPTIONS
 


 NUMBER OF STREAM REACHES IS   36

 NUMBER OF STREAM SEGMENTS IS    8

 NUMBER OF STREAM PARAMETERS IS    0

 NUMBER OF STREAM SEGMENTS DEFINED USING PARAMETERS IS              0

 MAXIMUM ERROR FOR STREAM LEAKAGE RATES IS  1.00E-06

 CONSTANT FOR MANNINGS EQUATION IS  1.4860E+00



 STREAM OUTPUT WILL BE WRITTEN TO FILE ON UNIT   81


   STREAM NETWORK DESCRIPTION: 

   LAYER    ROW    COL   SEGMENT   REACH     LENGTH
                          NUMBER   NUMBER    IN CELL        
   --------------------------------------------------
      1      1      1       1        1    4.5000E+03
      1      2      2       1        2    7.0000E+03
      1      3      3       1        3    6.0000E+03
      1      3      4       1        4    5.5500E+03
      1      4      5       2        1    6.5000E+03
      1      5      6       2        2    5.0000E+03
      1      6      6       2        3    5.0000E+03
      1      7      6       2        4    5.0000E+03
      1      8      6       2        5    5.0000E+03
      1      3      5       3        1    5.0000E+03
      1      3      6       3        2    5.0000E+03
      1      3      7       3        3    4.5000E+03
      1      4      8       3        4    6.0000E+03
      1      5      8       3        5    5.0000E+03
      1      6      8       3        6    2.0000E+03
      1      5     10       4        1    2.5000E+03
      1      5      9       4        2    5.0000E+03
      1      6      8       4        3    3.5000E+03
      1      6      8       5        1    4.0000E+03
      1      7      7       5        2    5.0000E+03
      1      8      7       5        3    3.5000E+03
      1      8      6       5        4    2.5000E+03
      1      9      6       6        1    5.0000E+03
      1     10      7       6        2    5.0000E+03
      1     11      7       6        3    5.0000E+03
      1     12      7       6        4    5.0000E+03
      1     13      7       6        5    2.0000E+03
      1     14      9       7        1    5.0000E+03
      1     13      8       7        2    5.5000E+03
      1     13      7       7        3    5.0000E+03
      1     13      6       8        1    5.0000E+03
      1     13      5       8        2    5.0000E+03
      1     13      4       8        3    5.0000E+03
      1     13      3       8        4    5.0000E+03
      1     13      2       8        5    5.0000E+03
      1     13      1       8        6    3.0000E+03




 UZF1 -- UNSATURATED FLOW PACKAGE, VERSION 1.5, 09/10/2019
         INPUT READ FROM UNIT 19
 #UZF Package input for test simulation 2
 No named parameters

 PROCESSING UZF OPTIONS
 
 
 INITIAL WATER CONTENT (THTI) WILL BE 
READ FOR THE FIRST SS OR TR STRESS PERIOD
 
 
 RESIDUAL WATER CONTENT (THTR) WILL BE 
READ AND USED FOR THE FIRST TRANSIENT STRESS 
PERIOD
 
 
AIR ENTRY PRESSURE AND ROOT PRESSURE WILL BE 
SPECIFIED BY USER AND UZ ET WILL BE SIMULATED 
AS PRESSURE-HEAD DEPENDENT
 
 
INFILTRATION WILL BE REJECTED USING 
LAND SURFACE K
 
 
HYDRAULIC CONDUCTIVITY OF LAND SURFACE 
WILL BE READ
 

 END PROCESSING UZF OPTIONS



            AREAL EXTENT OF UZ FLOW
 READING ON UNIT   19 WITH FORMAT: (20I4)              

                1           2           3           4           5           6           7           8           9          10
 ............................................................................................................................
   1            1           1           0           0           0           0           0           0           0           0
   2            1           1           1           0           0           1           1           1           0           0
   3            0           1           1           1           1           1           1           1           0           0
   4            1           1           1           1           1           1           1           1           1           0
   5            1           1           1           1           1           1           1           1           1           1
   6            1           1           1           1           1           1           1           1           1           1
   7            1           1           1           1           1           1           1           1           1           0
   8            0           1           1           1           1           1           1           1           1           0
   9            0           1           1           1           1           1           1           1           1           0
  10            0           1           1           1           1           1           1           1           1           1
  11            0           1           1           1           1           1           1           1           1           0
  12            1           1           1           1           1           1           1           1           1           0
  13            1           1           1           1           1           1           1           1           1           0
  14            0           1           1           1           1           1           1           1           1           0
  15            0           0           1           1           1           1           0           0           0           0
 OPTION 1 -- RECHARGE IN UZF TO TOP LAYER ONLY 



            ROUTING OVERLAND RUNOFF
 READING ON UNIT   19 WITH FORMAT: (20I4)              

                1           2           3           4           5           6           7           8           9          10
 ............................................................................................................................
   1            1           1           0           0           0           0           0           0           0           0
   2            1           1           1           0           0           3           3           3           0           0
   3            0           1           1           1           3           3           3           3           0           0
   4            8           8           2           2           2           2           2           3           3           0
   5            8           8           8           8           2           2           2           3           4           4
   6            8           8           8           8           8           2           2           4           4           4
   7            8           8           8           8           8           2           5           5           5           0
   8            0           8           8           8           8           2           5           5           5           0
   9            0           8           8           8           8           6           6           6           6           0
  10            0           8           8           8           8           6           6           6           6           6
  11            0           8           8           8           8           8           6           6           7           0
  12            8           8           8           8           8           8           6           7           7           0
  13            8           8           8           8           8           8           7           7           7           0
  14            0           8           8           8           8           8           7           7           7           0
  15            0           0           8           8           8           8           0           0           0           0



               SATURATED VERTICAL K
 READING ON UNIT   19 WITH FORMAT: (10F4.0)            

            1           2           3           4           5           6           7           8           9          10
 ........................................................................................................................
   1   4.6000E-05  4.6000E-05   0.000       0.000       0.000       0.000       0.000       0.000       0.000       0.000    
   2   4.6000E-05  4.6000E-05  4.6000E-05   0.000       0.000      4.6000E-05  4.6000E-05  4.6000E-05   0.000       0.000    
   3    0.000      4.6000E-05  4.6000E-05  4.6000E-05  4.6000E-05  4.6000E-05  4.6000E-05  4.6000E-05   0.000       0.000    
   4   4.6000E-05  4.6000E-05  4.6000E-05  4.6000E-05  4.6000E-05  4.6000E-05  4.6000E-05  4.6000E-05  4.6000E-05   0.000    
   5   4.6000E-05  4.6000E-05  4.6000E-05  4.6000E-05  4.6000E-05  4.6000E-05  4.6000E-05  4.6000E-05  4.6000E-05  4.6000E-05
   6   4.6000E-05  4.6000E-05  4.6000E-05  4.6000E-05  4.6000E-05  4.6000E-05  4.6000E-05  4.6000E-05  4.6000E-05  4.6000E-05
   7   4.6000E-05  4.6000E-05  4.6000E-05  4.6000E-05  4.6000E-05  4.6000E-05  4.6000E-05  4.6000E-05  4.6000E-05   0.000    
   8    0.000      4.6000E-05  4.6000E-05  4.6000E-05  4.6000E-05  4.6000E-05  4.6000E-05  4.6000E-05  4.6000E-05   0.000    
   9    0.000      4.6000E-05  4.6000E-05  4.6000E-05  4.6000E-05  4.6000E-05  4.6000E-05  4.6000E-05  4.6000E-05   0.000    
  10    0.000      4.6000E-05  4.6000E-05  4.6000E-05  4.6000E-05  4.6000E-05  4.6000E-05  4.6000E-05  4.6000E-05  4.6000E-05
  11    0.000      4.6000E-05  4.6000E-05  4.6000E-05  4.6000E-05  4.6000E-05  4.6000E-05  4.6000E-05  4.6000E-05   0.000    
  12   4.6000E-05  4.6000E-05  4.6000E-05  4.6000E-05  4.6000E-05  4.6000E-05  4.6000E-05  4.6000E-05  4.6000E-05   0.000    
  13   4.6000E-05  4.6000E-05  4.6000E-05  4.6000E-05  4.6000E-05  4.6000E-05  4.6000E-05  4.6000E-05  4.6000E-05   0.000    
  14    0.000      4.6000E-05  4.6000E-05  4.6000E-05  4.6000E-05  4.6000E-05  4.6000E-05  4.6000E-05  4.6000E-05   0.000    
  15    0.000       0.000      4.6000E-05  4.6000E-05  4.6000E-05  4.6000E-05   0.000       0.000       0.000       0.000    



            LAND SURFACE VERTICAL K
 READING ON UNIT   19 WITH FORMAT: (10F4.0)            

            1           2           3           4           5           6           7           8           9          10
 ........................................................................................................................
   1   1.0000E-05  1.0000E-05   0.000       0.000       0.000       0.000       0.000       0.000       0.000       0.000    
   2   1.0000E-05  1.0000E-05  1.0000E-05   0.000       0.000      1.0000E-05  1.0000E-05  1.0000E-05   0.000       0.000    
   3    0.000      1.0000E-05  1.0000E-05  1.0000E-05  1.0000E-05  1.0000E-05  1.0000E-05  1.0000E-05   0.000       0.000    
   4   1.0000E-05  1.0000E-05  1.0000E-05  1.0000E-05  1.0000E-05  1.0000E-05  1.0000E-05  1.0000E-05  1.0000E-05   0.000    
   5   1.0000E-05  1.0000E-05  1.0000E-05  1.0000E-05  1.0000E-05  1.0000E-05  1.0000E-05  1.0000E-05  1.0000E-05  1.0000E-05
   6   1.0000E-05  1.0000E-05  1.0000E-05  1.0000E-05  1.0000E-05  1.0000E-05  1.0000E-05  1.0000E-05  1.0000E-05  1.0000E-05
   7   1.0000E-05  1.0000E-05  1.0000E-05  1.0000E-05  1.0000E-05  1.0000E-05  1.0000E-05  1.0000E-05  1.0000E-05   0.000    
   8    0.000      1.0000E-05  1.0000E-05  1.0000E-05  1.0000E-05  1.0000E-05  1.0000E-05  1.0000E-05  1.0000E-05   0.000    
   9    0.000      1.0000E-05  1.0000E-05  1.0000E-05  1.0000E-05  1.0000E-05  1.0000E-05  1.0000E-05  1.0000E-05   0.000    
  10    0.000      1.0000E-05  1.0000E-05  1.0000E-05  1.0000E-05  1.0000E-05  1.0000E-05  1.0000E-05  1.0000E-05  1.0000E-05
  11    0.000      1.0000E-05  1.0000E-05  1.0000E-05  1.0000E-05  1.0000E-05  1.0000E-05  1.0000E-05  1.0000E-05   0.000    
  12   1.0000E-05  1.0000E-05  1.0000E-05  1.0000E-05  1.0000E-05  1.0000E-05  1.0000E-05  1.0000E-05  1.0000E-05   0.000    
  13   1.0000E-05  1.0000E-05  1.0000E-05  1.0000E-05  1.0000E-05  1.0000E-05  1.0000E-05  1.0000E-05  1.0000E-05   0.000    
  14    0.000      1.0000E-05  1.0000E-05  1.0000E-05  1.0000E-05  1.0000E-05  1.0000E-05  1.0000E-05  1.0000E-05   0.000    
  15    0.000       0.000      1.0000E-05  1.0000E-05  1.0000E-05  1.0000E-05   0.000       0.000       0.000       0.000    

     BROOKS-COREY EPSILON =   7.50000    

  SATURATED WATER CONTENT =  0.380000    

   RESIDUAL WATER CONTENT =  0.200000    

    INITIAL WATER CONTENT =  0.200000    

UNSATURATED FLOW RESULTS WILL BE PRINTED TO SEPARATE FILES FOR SELECTED MODEL CELLS, AND TIME STEPS AS DEFINED BY OUTPUT CONTROL PACKAGE 

SELECTED MODEL CELLS ARE: 
 ROW NUMBER  COLUMN NUMBER  FORTRAN UNIT NUMBER  OUTPUT OPTION


       6             4                 65                 1
       6             5                 66                 2
       8             4                 67                 3
       0             0                 68                 4



   8 GAGING STATIONS WERE SPECIFIED.
     (Lakes are identified by a negative value of the Lake Number)
     RECORDS WILL BE WRITTEN TO SEPARATE OUTPUT FILES REPRESENTED BY FOLLOWING UNIT NUMBERS:

 Stream Gages:
  GAGE #   SEGMENT   REACH   UNIT   OUTTYPE
       1       1       4      83       1
       2       2       3      84       1
       3       3       5      85       1
       4       4       3      86       1
       5       5       4      87       4
       6       6       5      88       4
       7       7       3      89       4
       8       8       6      90       4





 AG -- AG PACKAGE FOR NWT VERSION 1.1.3,  8/01/2017 INPUT READ FROM UNIT   57
 # AG options

 PROCESSING AG OPTIONS
 
 AGRICULTURAL DEMANDS WILL BE CALCULATED USING ET DEFICIT
 
 
 OPTION TO APPLY PUMPED WATER AS IRRIGATION IS ACTIVE. PUMPED IRRIGATION WATER WILL BE APPLIED TO          6 CELLS/RHUS.
 
 
 THE MAXIMUM NUMBER OF WELLS FOR SUPPLEMENTING DIVERSIONS OR APPLYING IRRIGATION IS          6 WELLS.
 
 
  UNFORMATTED CELL BY CELL RATES FOR SUP AND IRR WELLS WILL BE SAVED TO FILE UNIT NUMBER         -2
 
 
  UNFORMATTED CELL BY CELL RATES FOR SUP AND IRR WELLS WILL BE SAVED TO FILE UNIT NUMBER         -2
 
 
  GROUND WATER IRRIGATION, POTENTIAL AND ACTUAL ET WILL BE SAVED TO TIMES SERIES OUTPUT FILES.
 
 
  GROUND WATER IRRIGATION, POTENTIAL AND ACTUAL ET WILL BE SAVED TO TIMES SERIES OUTPUT FILES.
 

 END PROCESSING AG OPTIONS
 # AG time series

 PROCESSING TIME SERIES

 FINISHED READING TIME SERIES
 A total number of          0 AG output time series files were activated for SURFACE WATER 
 A total number of          2 AG output time series files were activated for GROUNDWATER 
 A total number of          0 AG output time series files were activated for SURFACE WATER ET
 A total number of          2 AG output time series files were activated for GROUNDWATER ET
1
                            STRESS PERIOD NO.    1, LENGTH =   86400.00    
                            -----------------------------------------------

                              NUMBER OF TIME STEPS =     1

                               MULTIPLIER FOR DELT =     1.000

                            INITIAL TIME STEP SIZE =   86400.00    

 BOUND. NO. LAYER   ROW   COL     STAGE      CONDUCTANCE         
 ----------------------------------------------------------------
      1      1     13      1       988.0          0.3800E-01
      2      1     14      9       1045.          0.3800E-01

      2 GHB CELLS



 CLASSIFICATION & COUNT OF STREAM SEGMENTS BASED ON SOURCE OF INFLOW:

                HEADWATER     DIVERSION     RECEIVES TRIBUTARY FLOW
                ---------     ---------     -----------------------
                     3              1               4



                    INPUT DATA FOR EACH STREAM SEGMENT
 ---------------------------------------------------------------------------------------------

 SEGMENT    SEG.     INFLOW   OVERLAND   STREAM    STREAM   ICALC  OUTFLOW  DIVERSION PRIORITY
    NO.    LENGTH     RATE     RUNOFF      ET       PPT.    METH.  TO SEG.  FROM SEG.    NO.

      1  2.305E+04 2.500E+01 0.000E+00 0.000E+00 0.000E+00    4        2        0        0
      2  2.650E+04 0.000E+00 0.000E+00 0.000E+00 0.000E+00    1        6        0        0
      3  2.750E+04 2.000E+00 0.000E+00 0.000E+00 0.000E+00    0        5        1        0
      4  1.100E+04 1.000E+01 0.000E+00 0.000E+00 0.000E+00    1        5        0        0
      5  1.500E+04 0.000E+00 0.000E+00 0.000E+00 0.000E+00    3        6        0        0
      6  2.200E+04 0.000E+00 0.000E+00 0.000E+00 0.000E+00    1        8        0        0
      7  1.550E+04 1.500E+02 0.000E+00 0.000E+00 0.000E+00    2        8        0        0
      8  2.800E+04 0.000E+00 0.000E+00 0.000E+00 0.000E+00    2        0        0        0


         STREAMBED PROPERTIES AND STREAM DIMENSIONS

 SEGMENT     BED HYD. COND.      BED THICKNESS     ELEV.-TOP OF BED     WIDTH OF STREAM     DEPTH OF STREAM    STREAM ROUGHNESS
    No.     UPPER     LOWER     UPPER     LOWER     UPPER     LOWER     UPPER     LOWER     UPPER     LOWER   CHANNEL      BANK

     1  3.000E-05 3.000E-05 3.000E+00 3.000E+00 1.095E+03 1.075E+03
     2  3.000E-05 3.000E-05 3.000E+00 3.000E+00 1.075E+03 1.050E+03 1.200E+01 1.200E+01                     3.000E-02
     3  3.000E-05 3.000E-05 2.000E+00 2.000E+00 1.075E+03 1.060E+03 1.000E+01 6.000E+00 2.000E+00 1.000E+00
     4  3.000E-05 3.000E-05 3.000E+00 3.000E+00 1.080E+03 1.060E+03 1.000E+01 1.000E+01                     3.000E-02
     5  3.000E-05 3.000E-05 3.000E+00 3.000E+00 1.060E+03 1.045E+03
     6  3.000E-05 3.000E-05 3.000E+00 3.000E+00 1.045E+03 1.025E+03 1.200E+01 1.200E+01                     3.000E-02
     7  6.000E-05 6.000E-05 3.000E+00 3.000E+00 1.040E+03 1.025E+03                                         2.500E-02 4.500E-02
     8  6.000E-05 6.000E-05 3.000E+00 3.000E+00 1.025E+03 9.900E+02                                         2.500E-02 4.500E-02

  EIGHT POINT CROSS-SECTION DATA FOR SEGMENTS WITH ICALC = 2
    X VALUES X VALUES START FROM LEFT SIDE LOOKING DOWNSTREAM

     SEGMENT NO.        X1        X2        X3        X4        X5        X6        X7        X8
            7      0.000E+00 1.000E+01 8.000E+01 1.000E+02 1.500E+02 1.700E+02 2.400E+02 2.500E+02
            8      0.000E+00 1.000E+01 8.000E+01 1.000E+02 1.500E+02 1.700E+02 2.400E+02 2.500E+02

    Z VALUES ARE RELATIVE TO STREAMBED ELEVATION

     SEGMENT NO.          Z1        Z2        Z3        Z4        Z5        Z6        Z7        Z8
            7      2.000E+01 1.300E+01 1.000E+01 2.000E+00 0.000E+00 1.000E+01 1.300E+01 2.000E+01
            8      2.500E+01 1.700E+01 1.300E+01 4.000E+00 0.000E+00 1.000E+01 1.600E+01 2.000E+01

 STREAMFLOW RELATION WITH DEPTH IS BASED ON EQUATION Q = CDPTH*(DEPTH)**FDPTH
 STREAMFLOW RELATION WITH WIDTH IS BASED ON EQUATION Q = AWDTH*(WIDTH)**BWDTH

 SEGMENT NO.      CDPTH     FDPTH    AWDTH     BWDTH

          5 3.000E-01 3.500E-01 3.800E+00 6.000E-01

 STREAMFLOW RELATION WITH DEPTH AND WIDTH IS BASED ON TABULATED VALUES

  SEGMENT NO.   STREAMFLOW       DEPTH       WIDTH

          1     5.0000E-01   2.5000E-01   3.0000E+00
          1     1.0000E+00   4.0000E-01   3.5000E+00
          1     2.0000E+00   5.5000E-01   4.2000E+00
          1     4.0000E+00   7.0000E-01   5.3000E+00
          1     7.0000E+00   8.0000E-01   7.0000E+00
          1     1.0000E+01   9.0000E-01   8.5000E+00
          1     2.0000E+01   1.1000E+00   1.2000E+01
          1     3.0000E+01   1.2500E+00   1.4000E+01
          1     5.0000E+01   1.4000E+00   1.7000E+01
          1     7.5000E+01   1.7000E+00   2.0000E+01
          1     1.0000E+02   1.8000E+00   2.2000E+01



TABULAR INFLOWS WERE READ FOR SEGMENT      1
FROM FILE UNIT NUMBER     55

          TIMES                    INFLOWS
         0.0000000000E+00     0.5000000000E+01
         0.8640000000E+05     0.2200000000E+02
         0.2760000000E+07     0.4200000000E+02
         0.5270000000E+07     0.7700000000E+02
         0.7950000000E+07     0.2800000000E+02
         0.1050000000E+08     0.9900000000E+02
         0.1320000000E+08     0.8300000000E+02
         0.1580000000E+08     0.7500000000E+02
         0.1850000000E+08     0.6100000000E+02
         0.2120000000E+08     0.4700000000E+02
         0.2380000000E+08     0.3500000000E+02
         0.2640000000E+08     0.2600000000E+02
         0.2900000000E+08     0.2300000000E+02
         0.3170000000E+08     0.1900000000E+02
         0.3440000000E+08     0.2100000000E+02
         0.3680000000E+08     0.9800000000E+02
         0.3950000000E+08     0.7500000000E+02
         0.4210000000E+08     0.6300000000E+02
         0.4480000000E+08     0.5800000000E+02
         0.4730000000E+08     0.5400000000E+02
         0.5000000000E+08     0.3700000000E+02
         0.5270000000E+08     0.2500000000E+02
         0.5530000000E+08     0.2200000000E+02
         0.5800000000E+08     0.2100000000E+02
         0.6060000000E+08     0.2000000000E+02
         0.6320000000E+08     0.1900000000E+02



            AREAL INFILTRATION RATE
 READING ON UNIT   19 WITH FORMAT: (10F4.0)            

            1           2           3           4           5           6           7           8           9          10
 ........................................................................................................................
   1   1.0000E-10  2.0000E-10   0.000       0.000       0.000       0.000       0.000       0.000       0.000       0.000    
   2   2.0000E-10  1.0000E-10  2.0000E-10   0.000       0.000      8.0000E-10  8.0000E-10  5.0000E-10   0.000       0.000    
   3    0.000      5.0000E-10  1.0000E-10  1.0000E-10  8.0000E-10  8.0000E-10  5.0000E-10  5.0000E-10   0.000       0.000    
   4   8.0000E-10  5.0000E-10  1.0000E-10  1.0000E-10  1.0000E-10  1.0000E-10  1.0000E-10  1.0000E-10  2.0000E-10   0.000    
   5   8.0000E-10  5.0000E-10  1.0000E-10  1.0000E-10  1.0000E-10  1.0000E-10  1.0000E-10  1.0000E-10  1.0000E-10  1.0000E-10
   6   8.0000E-10  5.0000E-10  5.0000E-10  2.0000E-10  2.0000E-10  1.0000E-10  1.0000E-10  1.0000E-10  1.0000E-10  5.0000E-10
   7   8.0000E-10  5.0000E-10  5.0000E-10  2.0000E-10  2.0000E-10  1.0000E-10  1.0000E-10  2.0000E-10  2.0000E-10   0.000    
   8    0.000      5.0000E-10  5.0000E-10  2.0000E-10  2.0000E-10  1.0000E-10  1.0000E-10  2.0000E-10  5.0000E-10   0.000    
   9    0.000      5.0000E-10  5.0000E-10  2.0000E-10  2.0000E-10  1.0000E-10  1.0000E-10  2.0000E-10  5.0000E-10   0.000    
  10    0.000      5.0000E-10  5.0000E-10  2.0000E-10  2.0000E-10  1.0000E-10  1.0000E-10  2.0000E-10  5.0000E-10  8.0000E-10
  11    0.000      1.0000E-10  1.0000E-10  1.0000E-10  1.0000E-10  1.0000E-10  1.0000E-10  2.0000E-10  5.0000E-10   0.000    
  12   1.0000E-10  1.0000E-10  1.0000E-10  1.0000E-10  1.0000E-10  1.0000E-10  1.0000E-10  1.0000E-10  2.0000E-10   0.000    
  13   1.0000E-10  1.0000E-10  2.0000E-10  2.0000E-10  2.0000E-10  2.0000E-10  2.0000E-10  1.0000E-10  1.0000E-10   0.000    
  14    0.000      2.0000E-10  5.0000E-10  5.0000E-10  5.0000E-10  5.0000E-10  5.0000E-10  2.0000E-10  1.0000E-10   0.000    
  15    0.000       0.000      8.0000E-10  8.0000E-10  8.0000E-10  8.0000E-10   0.000       0.000       0.000       0.000    

                  ET RATE =  1.000000E-08

      ET EXTINCTION DEPTH =  0.500000    

 EXTINCTION WATER CONTENT =  0.200000    

EXTINCTION WATER CONTENT FOR CELL AT ROW     1, COLUMN     1 IS LESS THAN RESIDUAL WATER CONTENT-- SETTING EXTINCTION WATER CONTENT EQUAL TO RESIDUAL WATER CONTENT

EXTINCTION WATER CONTENT FOR CELL AT ROW     1, COLUMN     2 IS LESS THAN RESIDUAL WATER CONTENT-- SETTING EXTINCTION WATER CONTENT EQUAL TO RESIDUAL WATER CONTENT

EXTINCTION WATER CONTENT FOR CELL AT ROW     2, COLUMN     1 IS LESS THAN RESIDUAL WATER CONTENT-- SETTING EXTINCTION WATER CONTENT EQUAL TO RESIDUAL WATER CONTENT

EXTINCTION WATER CONTENT FOR CELL AT ROW     2, COLUMN     2 IS LESS THAN RESIDUAL WATER CONTENT-- SETTING EXTINCTION WATER CONTENT EQUAL TO RESIDUAL WATER CONTENT

EXTINCTION WATER CONTENT FOR CELL AT ROW     2, COLUMN     3 IS LESS THAN RESIDUAL WATER CONTENT-- SETTING EXTINCTION WATER CONTENT EQUAL TO RESIDUAL WATER CONTENT

EXTINCTION WATER CONTENT FOR CELL AT ROW     2, COLUMN     6 IS LESS THAN RESIDUAL WATER CONTENT-- SETTING EXTINCTION WATER CONTENT EQUAL TO RESIDUAL WATER CONTENT

EXTINCTION WATER CONTENT FOR CELL AT ROW     2, COLUMN     7 IS LESS THAN RESIDUAL WATER CONTENT-- SETTING EXTINCTION WATER CONTENT EQUAL TO RESIDUAL WATER CONTENT

EXTINCTION WATER CONTENT FOR CELL AT ROW     2, COLUMN     8 IS LESS THAN RESIDUAL WATER CONTENT-- SETTING EXTINCTION WATER CONTENT EQUAL TO RESIDUAL WATER CONTENT

EXTINCTION WATER CONTENT FOR CELL AT ROW     3, COLUMN     2 IS LESS THAN RESIDUAL WATER CONTENT-- SETTING EXTINCTION WATER CONTENT EQUAL TO RESIDUAL WATER CONTENT

EXTINCTION WATER CONTENT FOR CELL AT ROW     3, COLUMN     3 IS LESS THAN RESIDUAL WATER CONTENT-- SETTING EXTINCTION WATER CONTENT EQUAL TO RESIDUAL WATER CONTENT

EXTINCTION WATER CONTENT FOR CELL AT ROW     3, COLUMN     4 IS LESS THAN RESIDUAL WATER CONTENT-- SETTING EXTINCTION WATER CONTENT EQUAL TO RESIDUAL WATER CONTENT

EXTINCTION WATER CONTENT FOR CELL AT ROW     3, COLUMN     5 IS LESS THAN RESIDUAL WATER CONTENT-- SETTING EXTINCTION WATER CONTENT EQUAL TO RESIDUAL WATER CONTENT

EXTINCTION WATER CONTENT FOR CELL AT ROW     3, COLUMN     6 IS LESS THAN RESIDUAL WATER CONTENT-- SETTING EXTINCTION WATER CONTENT EQUAL TO RESIDUAL WATER CONTENT

EXTINCTION WATER CONTENT FOR CELL AT ROW     3, COLUMN     7 IS LESS THAN RESIDUAL WATER CONTENT-- SETTING EXTINCTION WATER CONTENT EQUAL TO RESIDUAL WATER CONTENT

EXTINCTION WATER CONTENT FOR CELL AT ROW     3, COLUMN     8 IS LESS THAN RESIDUAL WATER CONTENT-- SETTING EXTINCTION WATER CONTENT EQUAL TO RESIDUAL WATER CONTENT

EXTINCTION WATER CONTENT FOR CELL AT ROW     4, COLUMN     1 IS LESS THAN RESIDUAL WATER CONTENT-- SETTING EXTINCTION WATER CONTENT EQUAL TO RESIDUAL WATER CONTENT

EXTINCTION WATER CONTENT FOR CELL AT ROW     4, COLUMN     2 IS LESS THAN RESIDUAL WATER CONTENT-- SETTING EXTINCTION WATER CONTENT EQUAL TO RESIDUAL WATER CONTENT

EXTINCTION WATER CONTENT FOR CELL AT ROW     4, COLUMN     3 IS LESS THAN RESIDUAL WATER CONTENT-- SETTING EXTINCTION WATER CONTENT EQUAL TO RESIDUAL WATER CONTENT

EXTINCTION WATER CONTENT FOR CELL AT ROW     4, COLUMN     4 IS LESS THAN RESIDUAL WATER CONTENT-- SETTING EXTINCTION WATER CONTENT EQUAL TO RESIDUAL WATER CONTENT

EXTINCTION WATER CONTENT FOR CELL AT ROW     4, COLUMN     5 IS LESS THAN RESIDUAL WATER CONTENT-- SETTING EXTINCTION WATER CONTENT EQUAL TO RESIDUAL WATER CONTENT

EXTINCTION WATER CONTENT FOR CELL AT ROW     4, COLUMN     6 IS LESS THAN RESIDUAL WATER CONTENT-- SETTING EXTINCTION WATER CONTENT EQUAL TO RESIDUAL WATER CONTENT

EXTINCTION WATER CONTENT FOR CELL AT ROW     4, COLUMN     7 IS LESS THAN RESIDUAL WATER CONTENT-- SETTING EXTINCTION WATER CONTENT EQUAL TO RESIDUAL WATER CONTENT

EXTINCTION WATER CONTENT FOR CELL AT ROW     4, COLUMN     8 IS LESS THAN RESIDUAL WATER CONTENT-- SETTING EXTINCTION WATER CONTENT EQUAL TO RESIDUAL WATER CONTENT

EXTINCTION WATER CONTENT FOR CELL AT ROW     4, COLUMN     9 IS LESS THAN RESIDUAL WATER CONTENT-- SETTING EXTINCTION WATER CONTENT EQUAL TO RESIDUAL WATER CONTENT

EXTINCTION WATER CONTENT FOR CELL AT ROW     5, COLUMN     1 IS LESS THAN RESIDUAL WATER CONTENT-- SETTING EXTINCTION WATER CONTENT EQUAL TO RESIDUAL WATER CONTENT

EXTINCTION WATER CONTENT FOR CELL AT ROW     5, COLUMN     2 IS LESS THAN RESIDUAL WATER CONTENT-- SETTING EXTINCTION WATER CONTENT EQUAL TO RESIDUAL WATER CONTENT

EXTINCTION WATER CONTENT FOR CELL AT ROW     5, COLUMN     3 IS LESS THAN RESIDUAL WATER CONTENT-- SETTING EXTINCTION WATER CONTENT EQUAL TO RESIDUAL WATER CONTENT

EXTINCTION WATER CONTENT FOR CELL AT ROW     5, COLUMN     4 IS LESS THAN RESIDUAL WATER CONTENT-- SETTING EXTINCTION WATER CONTENT EQUAL TO RESIDUAL WATER CONTENT

EXTINCTION WATER CONTENT FOR CELL AT ROW     5, COLUMN     5 IS LESS THAN RESIDUAL WATER CONTENT-- SETTING EXTINCTION WATER CONTENT EQUAL TO RESIDUAL WATER CONTENT

EXTINCTION WATER CONTENT FOR CELL AT ROW     5, COLUMN     6 IS LESS THAN RESIDUAL WATER CONTENT-- SETTING EXTINCTION WATER CONTENT EQUAL TO RESIDUAL WATER CONTENT

EXTINCTION WATER CONTENT FOR CELL AT ROW     5, COLUMN     7 IS LESS THAN RESIDUAL WATER CONTENT-- SETTING EXTINCTION WATER CONTENT EQUAL TO RESIDUAL WATER CONTENT

EXTINCTION WATER CONTENT FOR CELL AT ROW     5, COLUMN     8 IS LESS THAN RESIDUAL WATER CONTENT-- SETTING EXTINCTION WATER CONTENT EQUAL TO RESIDUAL WATER CONTENT

EXTINCTION WATER CONTENT FOR CELL AT ROW     5, COLUMN     9 IS LESS THAN RESIDUAL WATER CONTENT-- SETTING EXTINCTION WATER CONTENT EQUAL TO RESIDUAL WATER CONTENT

EXTINCTION WATER CONTENT FOR CELL AT ROW     5, COLUMN    10 IS LESS THAN RESIDUAL WATER CONTENT-- SETTING EXTINCTION WATER CONTENT EQUAL TO RESIDUAL WATER CONTENT

EXTINCTION WATER CONTENT FOR CELL AT ROW     6, COLUMN     1 IS LESS THAN RESIDUAL WATER CONTENT-- SETTING EXTINCTION WATER CONTENT EQUAL TO RESIDUAL WATER CONTENT

EXTINCTION WATER CONTENT FOR CELL AT ROW     6, COLUMN     2 IS LESS THAN RESIDUAL WATER CONTENT-- SETTING EXTINCTION WATER CONTENT EQUAL TO RESIDUAL WATER CONTENT

EXTINCTION WATER CONTENT FOR CELL AT ROW     6, COLUMN     3 IS LESS THAN RESIDUAL WATER CONTENT-- SETTING EXTINCTION WATER CONTENT EQUAL TO RESIDUAL WATER CONTENT

EXTINCTION WATER CONTENT FOR CELL AT ROW     6, COLUMN     4 IS LESS THAN RESIDUAL WATER CONTENT-- SETTING EXTINCTION WATER CONTENT EQUAL TO RESIDUAL WATER CONTENT

EXTINCTION WATER CONTENT FOR CELL AT ROW     6, COLUMN     5 IS LESS THAN RESIDUAL WATER CONTENT-- SETTING EXTINCTION WATER CONTENT EQUAL TO RESIDUAL WATER CONTENT

EXTINCTION WATER CONTENT FOR CELL AT ROW     6, COLUMN     6 IS LESS THAN RESIDUAL WATER CONTENT-- SETTING EXTINCTION WATER CONTENT EQUAL TO RESIDUAL WATER CONTENT

EXTINCTION WATER CONTENT FOR CELL AT ROW     6, COLUMN     7 IS LESS THAN RESIDUAL WATER CONTENT-- SETTING EXTINCTION WATER CONTENT EQUAL TO RESIDUAL WATER CONTENT

EXTINCTION WATER CONTENT FOR CELL AT ROW     6, COLUMN     8 IS LESS THAN RESIDUAL WATER CONTENT-- SETTING EXTINCTION WATER CONTENT EQUAL TO RESIDUAL WATER CONTENT

EXTINCTION WATER CONTENT FOR CELL AT ROW     6, COLUMN     9 IS LESS THAN RESIDUAL WATER CONTENT-- SETTING EXTINCTION WATER CONTENT EQUAL TO RESIDUAL WATER CONTENT

EXTINCTION WATER CONTENT FOR CELL AT ROW     6, COLUMN    10 IS LESS THAN RESIDUAL WATER CONTENT-- SETTING EXTINCTION WATER CONTENT EQUAL TO RESIDUAL WATER CONTENT

EXTINCTION WATER CONTENT FOR CELL AT ROW     7, COLUMN     1 IS LESS THAN RESIDUAL WATER CONTENT-- SETTING EXTINCTION WATER CONTENT EQUAL TO RESIDUAL WATER CONTENT

EXTINCTION WATER CONTENT FOR CELL AT ROW     7, COLUMN     2 IS LESS THAN RESIDUAL WATER CONTENT-- SETTING EXTINCTION WATER CONTENT EQUAL TO RESIDUAL WATER CONTENT

EXTINCTION WATER CONTENT FOR CELL AT ROW     7, COLUMN     3 IS LESS THAN RESIDUAL WATER CONTENT-- SETTING EXTINCTION WATER CONTENT EQUAL TO RESIDUAL WATER CONTENT

EXTINCTION WATER CONTENT FOR CELL AT ROW     7, COLUMN     4 IS LESS THAN RESIDUAL WATER CONTENT-- SETTING EXTINCTION WATER CONTENT EQUAL TO RESIDUAL WATER CONTENT

EXTINCTION WATER CONTENT FOR CELL AT ROW     7, COLUMN     5 IS LESS THAN RESIDUAL WATER CONTENT-- SETTING EXTINCTION WATER CONTENT EQUAL TO RESIDUAL WATER CONTENT

EXTINCTION WATER CONTENT FOR CELL AT ROW     7, COLUMN     6 IS LESS THAN RESIDUAL WATER CONTENT-- SETTING EXTINCTION WATER CONTENT EQUAL TO RESIDUAL WATER CONTENT

EXTINCTION WATER CONTENT FOR CELL AT ROW     7, COLUMN     7 IS LESS THAN RESIDUAL WATER CONTENT-- SETTING EXTINCTION WATER CONTENT EQUAL TO RESIDUAL WATER CONTENT

EXTINCTION WATER CONTENT FOR CELL AT ROW     7, COLUMN     8 IS LESS THAN RESIDUAL WATER CONTENT-- SETTING EXTINCTION WATER CONTENT EQUAL TO RESIDUAL WATER CONTENT

EXTINCTION WATER CONTENT FOR CELL AT ROW     7, COLUMN     9 IS LESS THAN RESIDUAL WATER CONTENT-- SETTING EXTINCTION WATER CONTENT EQUAL TO RESIDUAL WATER CONTENT

EXTINCTION WATER CONTENT FOR CELL AT ROW     8, COLUMN     2 IS LESS THAN RESIDUAL WATER CONTENT-- SETTING EXTINCTION WATER CONTENT EQUAL TO RESIDUAL WATER CONTENT

EXTINCTION WATER CONTENT FOR CELL AT ROW     8, COLUMN     3 IS LESS THAN RESIDUAL WATER CONTENT-- SETTING EXTINCTION WATER CONTENT EQUAL TO RESIDUAL WATER CONTENT

EXTINCTION WATER CONTENT FOR CELL AT ROW     8, COLUMN     4 IS LESS THAN RESIDUAL WATER CONTENT-- SETTING EXTINCTION WATER CONTENT EQUAL TO RESIDUAL WATER CONTENT

EXTINCTION WATER CONTENT FOR CELL AT ROW     8, COLUMN     5 IS LESS THAN RESIDUAL WATER CONTENT-- SETTING EXTINCTION WATER CONTENT EQUAL TO RESIDUAL WATER CONTENT

EXTINCTION WATER CONTENT FOR CELL AT ROW     8, COLUMN     6 IS LESS THAN RESIDUAL WATER CONTENT-- SETTING EXTINCTION WATER CONTENT EQUAL TO RESIDUAL WATER CONTENT

EXTINCTION WATER CONTENT FOR CELL AT ROW     8, COLUMN     7 IS LESS THAN RESIDUAL WATER CONTENT-- SETTING EXTINCTION WATER CONTENT EQUAL TO RESIDUAL WATER CONTENT

EXTINCTION WATER CONTENT FOR CELL AT ROW     8, COLUMN     8 IS LESS THAN RESIDUAL WATER CONTENT-- SETTING EXTINCTION WATER CONTENT EQUAL TO RESIDUAL WATER CONTENT

EXTINCTION WATER CONTENT FOR CELL AT ROW     8, COLUMN     9 IS LESS THAN RESIDUAL WATER CONTENT-- SETTING EXTINCTION WATER CONTENT EQUAL TO RESIDUAL WATER CONTENT

EXTINCTION WATER CONTENT FOR CELL AT ROW     9, COLUMN     2 IS LESS THAN RESIDUAL WATER CONTENT-- SETTING EXTINCTION WATER CONTENT EQUAL TO RESIDUAL WATER CONTENT

EXTINCTION WATER CONTENT FOR CELL AT ROW     9, COLUMN     3 IS LESS THAN RESIDUAL WATER CONTENT-- SETTING EXTINCTION WATER CONTENT EQUAL TO RESIDUAL WATER CONTENT

EXTINCTION WATER CONTENT FOR CELL AT ROW     9, COLUMN     4 IS LESS THAN RESIDUAL WATER CONTENT-- SETTING EXTINCTION WATER CONTENT EQUAL TO RESIDUAL WATER CONTENT

EXTINCTION WATER CONTENT FOR CELL AT ROW     9, COLUMN     5 IS LESS THAN RESIDUAL WATER CONTENT-- SETTING EXTINCTION WATER CONTENT EQUAL TO RESIDUAL WATER CONTENT

EXTINCTION WATER CONTENT FOR CELL AT ROW     9, COLUMN     6 IS LESS THAN RESIDUAL WATER CONTENT-- SETTING EXTINCTION WATER CONTENT EQUAL TO RESIDUAL WATER CONTENT

EXTINCTION WATER CONTENT FOR CELL AT ROW     9, COLUMN     7 IS LESS THAN RESIDUAL WATER CONTENT-- SETTING EXTINCTION WATER CONTENT EQUAL TO RESIDUAL WATER CONTENT

EXTINCTION WATER CONTENT FOR CELL AT ROW     9, COLUMN     8 IS LESS THAN RESIDUAL WATER CONTENT-- SETTING EXTINCTION WATER CONTENT EQUAL TO RESIDUAL WATER CONTENT

EXTINCTION WATER CONTENT FOR CELL AT ROW     9, COLUMN     9 IS LESS THAN RESIDUAL WATER CONTENT-- SETTING EXTINCTION WATER CONTENT EQUAL TO RESIDUAL WATER CONTENT

EXTINCTION WATER CONTENT FOR CELL AT ROW    10, COLUMN     2 IS LESS THAN RESIDUAL WATER CONTENT-- SETTING EXTINCTION WATER CONTENT EQUAL TO RESIDUAL WATER CONTENT

EXTINCTION WATER CONTENT FOR CELL AT ROW    10, COLUMN     3 IS LESS THAN RESIDUAL WATER CONTENT-- SETTING EXTINCTION WATER CONTENT EQUAL TO RESIDUAL WATER CONTENT

EXTINCTION WATER CONTENT FOR CELL AT ROW    10, COLUMN     4 IS LESS THAN RESIDUAL WATER CONTENT-- SETTING EXTINCTION WATER CONTENT EQUAL TO RESIDUAL WATER CONTENT

EXTINCTION WATER CONTENT FOR CELL AT ROW    10, COLUMN     5 IS LESS THAN RESIDUAL WATER CONTENT-- SETTING EXTINCTION WATER CONTENT EQUAL TO RESIDUAL WATER CONTENT

EXTINCTION WATER CONTENT FOR CELL AT ROW    10, COLUMN     6 IS LESS THAN RESIDUAL WATER CONTENT-- SETTING EXTINCTION WATER CONTENT EQUAL TO RESIDUAL WATER CONTENT

EXTINCTION WATER CONTENT FOR CELL AT ROW    10, COLUMN     7 IS LESS THAN RESIDUAL WATER CONTENT-- SETTING EXTINCTION WATER CONTENT EQUAL TO RESIDUAL WATER CONTENT

EXTINCTION WATER CONTENT FOR CELL AT ROW    10, COLUMN     8 IS LESS THAN RESIDUAL WATER CONTENT-- SETTING EXTINCTION WATER CONTENT EQUAL TO RESIDUAL WATER CONTENT

EXTINCTION WATER CONTENT FOR CELL AT ROW    10, COLUMN     9 IS LESS THAN RESIDUAL WATER CONTENT-- SETTING EXTINCTION WATER CONTENT EQUAL TO RESIDUAL WATER CONTENT

EXTINCTION WATER CONTENT FOR CELL AT ROW    10, COLUMN    10 IS LESS THAN RESIDUAL WATER CONTENT-- SETTING EXTINCTION WATER CONTENT EQUAL TO RESIDUAL WATER CONTENT

EXTINCTION WATER CONTENT FOR CELL AT ROW    11, COLUMN     2 IS LESS THAN RESIDUAL WATER CONTENT-- SETTING EXTINCTION WATER CONTENT EQUAL TO RESIDUAL WATER CONTENT

EXTINCTION WATER CONTENT FOR CELL AT ROW    11, COLUMN     3 IS LESS THAN RESIDUAL WATER CONTENT-- SETTING EXTINCTION WATER CONTENT EQUAL TO RESIDUAL WATER CONTENT

EXTINCTION WATER CONTENT FOR CELL AT ROW    11, COLUMN     4 IS LESS THAN RESIDUAL WATER CONTENT-- SETTING EXTINCTION WATER CONTENT EQUAL TO RESIDUAL WATER CONTENT

EXTINCTION WATER CONTENT FOR CELL AT ROW    11, COLUMN     5 IS LESS THAN RESIDUAL WATER CONTENT-- SETTING EXTINCTION WATER CONTENT EQUAL TO RESIDUAL WATER CONTENT

EXTINCTION WATER CONTENT FOR CELL AT ROW    11, COLUMN     6 IS LESS THAN RESIDUAL WATER CONTENT-- SETTING EXTINCTION WATER CONTENT EQUAL TO RESIDUAL WATER CONTENT

EXTINCTION WATER CONTENT FOR CELL AT ROW    11, COLUMN     7 IS LESS THAN RESIDUAL WATER CONTENT-- SETTING EXTINCTION WATER CONTENT EQUAL TO RESIDUAL WATER CONTENT

EXTINCTION WATER CONTENT FOR CELL AT ROW    11, COLUMN     8 IS LESS THAN RESIDUAL WATER CONTENT-- SETTING EXTINCTION WATER CONTENT EQUAL TO RESIDUAL WATER CONTENT

EXTINCTION WATER CONTENT FOR CELL AT ROW    11, COLUMN     9 IS LESS THAN RESIDUAL WATER CONTENT-- SETTING EXTINCTION WATER CONTENT EQUAL TO RESIDUAL WATER CONTENT

EXTINCTION WATER CONTENT FOR CELL AT ROW    12, COLUMN     1 IS LESS THAN RESIDUAL WATER CONTENT-- SETTING EXTINCTION WATER CONTENT EQUAL TO RESIDUAL WATER CONTENT

EXTINCTION WATER CONTENT FOR CELL AT ROW    12, COLUMN     2 IS LESS THAN RESIDUAL WATER CONTENT-- SETTING EXTINCTION WATER CONTENT EQUAL TO RESIDUAL WATER CONTENT

EXTINCTION WATER CONTENT FOR CELL AT ROW    12, COLUMN     3 IS LESS THAN RESIDUAL WATER CONTENT-- SETTING EXTINCTION WATER CONTENT EQUAL TO RESIDUAL WATER CONTENT

EXTINCTION WATER CONTENT FOR CELL AT ROW    12, COLUMN     4 IS LESS THAN RESIDUAL WATER CONTENT-- SETTING EXTINCTION WATER CONTENT EQUAL TO RESIDUAL WATER CONTENT

EXTINCTION WATER CONTENT FOR CELL AT ROW    12, COLUMN     5 IS LESS THAN RESIDUAL WATER CONTENT-- SETTING EXTINCTION WATER CONTENT EQUAL TO RESIDUAL WATER CONTENT

EXTINCTION WATER CONTENT FOR CELL AT ROW    12, COLUMN     6 IS LESS THAN RESIDUAL WATER CONTENT-- SETTING EXTINCTION WATER CONTENT EQUAL TO RESIDUAL WATER CONTENT

EXTINCTION WATER CONTENT FOR CELL AT ROW    12, COLUMN     7 IS LESS THAN RESIDUAL WATER CONTENT-- SETTING EXTINCTION WATER CONTENT EQUAL TO RESIDUAL WATER CONTENT

EXTINCTION WATER CONTENT FOR CELL AT ROW    12, COLUMN     8 IS LESS THAN RESIDUAL WATER CONTENT-- SETTING EXTINCTION WATER CONTENT EQUAL TO RESIDUAL WATER CONTENT

EXTINCTION WATER CONTENT FOR CELL AT ROW    12, COLUMN     9 IS LESS THAN RESIDUAL WATER CONTENT-- SETTING EXTINCTION WATER CONTENT EQUAL TO RESIDUAL WATER CONTENT

EXTINCTION WATER CONTENT FOR CELL AT ROW    13, COLUMN     1 IS LESS THAN RESIDUAL WATER CONTENT-- SETTING EXTINCTION WATER CONTENT EQUAL TO RESIDUAL WATER CONTENT

EXTINCTION WATER CONTENT FOR CELL AT ROW    13, COLUMN     2 IS LESS THAN RESIDUAL WATER CONTENT-- SETTING EXTINCTION WATER CONTENT EQUAL TO RESIDUAL WATER CONTENT

EXTINCTION WATER CONTENT FOR CELL AT ROW    13, COLUMN     3 IS LESS THAN RESIDUAL WATER CONTENT-- SETTING EXTINCTION WATER CONTENT EQUAL TO RESIDUAL WATER CONTENT

EXTINCTION WATER CONTENT FOR CELL AT ROW    13, COLUMN     4 IS LESS THAN RESIDUAL WATER CONTENT-- SETTING EXTINCTION WATER CONTENT EQUAL TO RESIDUAL WATER CONTENT

EXTINCTION WATER CONTENT FOR CELL AT ROW    13, COLUMN     5 IS LESS THAN RESIDUAL WATER CONTENT-- SETTING EXTINCTION WATER CONTENT EQUAL TO RESIDUAL WATER CONTENT

EXTINCTION WATER CONTENT FOR CELL AT ROW    13, COLUMN     6 IS LESS THAN RESIDUAL WATER CONTENT-- SETTING EXTINCTION WATER CONTENT EQUAL TO RESIDUAL WATER CONTENT

EXTINCTION WATER CONTENT FOR CELL AT ROW    13, COLUMN     7 IS LESS THAN RESIDUAL WATER CONTENT-- SETTING EXTINCTION WATER CONTENT EQUAL TO RESIDUAL WATER CONTENT

EXTINCTION WATER CONTENT FOR CELL AT ROW    13, COLUMN     8 IS LESS THAN RESIDUAL WATER CONTENT-- SETTING EXTINCTION WATER CONTENT EQUAL TO RESIDUAL WATER CONTENT

EXTINCTION WATER CONTENT FOR CELL AT ROW    13, COLUMN     9 IS LESS THAN RESIDUAL WATER CONTENT-- SETTING EXTINCTION WATER CONTENT EQUAL TO RESIDUAL WATER CONTENT

EXTINCTION WATER CONTENT FOR CELL AT ROW    14, COLUMN     2 IS LESS THAN RESIDUAL WATER CONTENT-- SETTING EXTINCTION WATER CONTENT EQUAL TO RESIDUAL WATER CONTENT

EXTINCTION WATER CONTENT FOR CELL AT ROW    14, COLUMN     3 IS LESS THAN RESIDUAL WATER CONTENT-- SETTING EXTINCTION WATER CONTENT EQUAL TO RESIDUAL WATER CONTENT

EXTINCTION WATER CONTENT FOR CELL AT ROW    14, COLUMN     4 IS LESS THAN RESIDUAL WATER CONTENT-- SETTING EXTINCTION WATER CONTENT EQUAL TO RESIDUAL WATER CONTENT

EXTINCTION WATER CONTENT FOR CELL AT ROW    14, COLUMN     5 IS LESS THAN RESIDUAL WATER CONTENT-- SETTING EXTINCTION WATER CONTENT EQUAL TO RESIDUAL WATER CONTENT

EXTINCTION WATER CONTENT FOR CELL AT ROW    14, COLUMN     6 IS LESS THAN RESIDUAL WATER CONTENT-- SETTING EXTINCTION WATER CONTENT EQUAL TO RESIDUAL WATER CONTENT

EXTINCTION WATER CONTENT FOR CELL AT ROW    14, COLUMN     7 IS LESS THAN RESIDUAL WATER CONTENT-- SETTING EXTINCTION WATER CONTENT EQUAL TO RESIDUAL WATER CONTENT

EXTINCTION WATER CONTENT FOR CELL AT ROW    14, COLUMN     8 IS LESS THAN RESIDUAL WATER CONTENT-- SETTING EXTINCTION WATER CONTENT EQUAL TO RESIDUAL WATER CONTENT

EXTINCTION WATER CONTENT FOR CELL AT ROW    14, COLUMN     9 IS LESS THAN RESIDUAL WATER CONTENT-- SETTING EXTINCTION WATER CONTENT EQUAL TO RESIDUAL WATER CONTENT

EXTINCTION WATER CONTENT FOR CELL AT ROW    15, COLUMN     3 IS LESS THAN RESIDUAL WATER CONTENT-- SETTING EXTINCTION WATER CONTENT EQUAL TO RESIDUAL WATER CONTENT

EXTINCTION WATER CONTENT FOR CELL AT ROW    15, COLUMN     4 IS LESS THAN RESIDUAL WATER CONTENT-- SETTING EXTINCTION WATER CONTENT EQUAL TO RESIDUAL WATER CONTENT

EXTINCTION WATER CONTENT FOR CELL AT ROW    15, COLUMN     5 IS LESS THAN RESIDUAL WATER CONTENT-- SETTING EXTINCTION WATER CONTENT EQUAL TO RESIDUAL WATER CONTENT

EXTINCTION WATER CONTENT FOR CELL AT ROW    15, COLUMN     6 IS LESS THAN RESIDUAL WATER CONTENT-- SETTING EXTINCTION WATER CONTENT EQUAL TO RESIDUAL WATER CONTENT

       AIR ENTRY PRESSURE =  -1.10000    

            ROOT PRESSURE =  -75.0000    

            ROOT ACTIVITY =   1.00000    
 # AG well list

 PROCESSING WELL LIST

 LAYER   ROW   COL   MAX STRESS RATE         
 --------------------------------------------
      1      1      6      4     -0.1000E+05
      2      1      6      5     -0.1000E+05
      3      1      7      4     -0.1000E+05
      4      1      7      5     -0.1000E+05
      5      1      8      4     -0.1000E+05
      6      1      8      5     -0.1000E+05

 FINISHED READING WELL LIST

      6 WELLS

 PROCESSING AG STRESS PERIOD DATA
 # AG stress period

 READING AG STRESS PERIOD DATA

 READING IRRIGATION WELL

 END PROCESSING AG STRESS PERIOD DATA OPTIONS
 
 SOLVING FOR HEAD 
                                                   Max.-Head-Change                         Max.-Flux-Residual
  Residual-Control   Outer-Iter.   Inner-Iter.     Column Row Layer    Maximum-Head-Change  Column Row Layer    Maximum-Flux-Residual          L2-NORM 
          0                 1           6             2    2     1      -0.2729307452E+02       3    3    1        -0.3343270791E+01      0.9349602253E+01
          0                 2           6             1    1     1      -0.3197666082E+02       1   13    1        -0.6358527916E+02      0.6379400781E+02
          0                 3           5             1    1     1      -0.1504245443E+01       6   13    1        -0.2192613169E+01      0.3421341242E+01
          0                 4           5             5   13     1      -0.1460050815E+00       5   13    1        -0.2979620028E+00      0.3680363586E+00
          0                 5           4             5   14     1       0.3048806951E-01       5   13    1         0.1483208106E-01      0.2476348557E-01
          0                 6           2             5   14     1      -0.1193416356E-02       5   13    1        -0.5919336299E-03      0.1772759968E-02
          0                 7           1             5   14     1       0.1314838774E-04       7   10    1         0.2242323671E-04      0.6971741025E-04

    ------------------------------------------------
       NWT REQUIRED            7 OUTER ITERATIONS 
       AND A TOTAL OF         29 INNER ITERATIONS.
    ------------------------------------------------

 OUTPUT CONTROL FOR STRESS PERIOD    1   TIME STEP    1
    PRINT BUDGET
    PRINT HEAD FOR ALL LAYERS
    SAVE BUDGET
    SAVE HEAD FOR ALL LAYERS
 UBDSV2 SAVING "   CONSTANT HEAD" ON UNIT 102 AT TIME STEP  1, STRESS PERIOD   1
 UBDSV1 SAVING "FLOW RIGHT FACE " ON UNIT 102 AT TIME STEP  1, STRESS PERIOD   1
 UBDSV1 SAVING "FLOW FRONT FACE " ON UNIT 102 AT TIME STEP  1, STRESS PERIOD   1

  HEAD DEP BOUNDS   PERIOD    1   STEP     1
 BOUNDARY      1   LAYER   1   ROW    13   COL     1   RATE   -0.287309    
 BOUNDARY      2   LAYER   1   ROW    14   COL     9   RATE    0.285356    



 STREAM LISTING     PERIOD      1   STEP        1

 LAYER ROW COL. STREAM  RCH.  FLOW INTO     FLOW TO   FLOW OUT OF   OVRLND.     DIRECT     STREAM       STREAM     STREAM     STREAM   STREAMBED  STREAMBED
                SEG.NO.  NO.  STRM. RCH.    AQUIFER    STRM. RCH.    RUNOFF     PRECIP       ET          HEAD       DEPTH      WIDTH   CONDCTNC.   GRADIENT

   1    1    1     1     1    5.0000E+00  9.9080E-02   4.9009E+00  0.000E+00  0.000E+00  0.000E+00  1.09378E+03  7.365E-01  5.893E+00  2.652E-02  1.246E+00
   1    2    2     1     2    4.9009E+00  1.5199E-01   4.7489E+00  0.000E+00  0.000E+00  0.000E+00  1.08879E+03  7.320E-01  5.818E+00  4.072E-02  1.244E+00
   1    3    3     1     3    4.7489E+00  1.2820E-01   4.6207E+00  0.000E+00  0.000E+00  0.000E+00  1.08315E+03  7.269E-01  5.733E+00  3.440E-02  1.242E+00
   1    3    4     1     4    4.6207E+00  1.1689E-01   4.5038E+00  0.000E+00  0.000E+00  0.000E+00  1.07813E+03  7.223E-01  5.658E+00  3.140E-02  1.241E+00
   1    4    5     2     1    2.5038E+00  2.5694E-01   2.2469E+00  0.000E+00  0.000E+00  0.000E+00  1.07223E+03  2.942E-01  1.200E+01  7.800E-02  1.098E+00
   1    5    6     2     2    2.2469E+00  1.9662E-01   2.0503E+00  0.000E+00  0.000E+00  0.000E+00  1.06679E+03  2.770E-01  1.200E+01  6.000E-02  1.092E+00
   1    6    6     2     3    2.0503E+00  1.9569E-01   1.8546E+00  0.000E+00  0.000E+00  0.000E+00  1.06205E+03  2.615E-01  1.200E+01  6.000E-02  1.087E+00
   1    7    6     2     4    1.8546E+00  1.9473E-01   1.6599E+00  0.000E+00  0.000E+00  0.000E+00  1.05732E+03  2.455E-01  1.200E+01  6.000E-02  1.082E+00
   1    8    6     2     5    1.6599E+00  1.9373E-01   1.4661E+00  0.000E+00  0.000E+00  0.000E+00  1.05259E+03  2.288E-01  1.200E+01  6.000E-02  1.076E+00
   1    3    5     3     1    2.0000E+00  2.8252E-01   1.7175E+00  0.000E+00  0.000E+00  0.000E+00  1.07555E+03  1.909E+00  9.636E+00  7.227E-02  1.955E+00
   1    3    6     3     2    1.7175E+00  2.4905E-01   1.4684E+00  0.000E+00  0.000E+00  0.000E+00  1.07264E+03  1.727E+00  8.909E+00  6.682E-02  1.864E+00
   1    3    7     3     3    1.4684E+00  1.9718E-01   1.2712E+00  0.000E+00  0.000E+00  0.000E+00  1.06987E+03  1.555E+00  8.218E+00  5.547E-02  1.777E+00
   1    4    8     3     4    1.2712E+00  2.2567E-01   1.0456E+00  0.000E+00  0.000E+00  0.000E+00  1.06682E+03  1.364E+00  7.455E+00  6.709E-02  1.682E+00
   1    5    8     3     5    1.0456E+00  1.5790E-01   8.8768E-01  0.000E+00  0.000E+00  0.000E+00  1.06362E+03  1.164E+00  6.655E+00  4.991E-02  1.582E+00
   1    6    8     3     6    8.8768E-01  5.5980E-02   8.3170E-01  0.000E+00  0.000E+00  0.000E+00  1.06158E+03  1.036E+00  6.145E+00  1.844E-02  1.518E+00
   1    5   10     4     1    1.0000E+01  9.0919E-02   9.9091E+00  0.000E+00  0.000E+00  0.000E+00  1.07836E+03  6.368E-01  1.000E+01  2.500E-02  1.212E+00
   1    5    9     4     2    9.9091E+00  1.8158E-01   9.7275E+00  0.000E+00  0.000E+00  0.000E+00  1.07154E+03  6.315E-01  1.000E+01  5.000E-02  1.211E+00
   1    6    8     4     3    9.7275E+00  1.2689E-01   9.6006E+00  0.000E+00  0.000E+00  0.000E+00  1.06381E+03  6.256E-01  1.000E+01  3.500E-02  1.209E+00
   1    6    8     5     1    1.0432E+01  2.2686E-01   1.0205E+01  0.000E+00  0.000E+00  0.000E+00  1.05868E+03  6.790E-01  1.542E+01  6.166E-02  1.226E+00
   1    7    7     5     2    1.0205E+01  2.7894E-01   9.9265E+00  0.000E+00  0.000E+00  0.000E+00  1.05417E+03  6.732E-01  1.519E+01  7.594E-02  1.224E+00
   1    8    7     5     3    9.9265E+00  1.9221E-01   9.7343E+00  0.000E+00  0.000E+00  0.000E+00  1.04992E+03  6.676E-01  1.497E+01  5.241E-02  1.223E+00
   1    8    6     5     4    9.7343E+00  1.3577E-01   9.5985E+00  0.000E+00  0.000E+00  0.000E+00  1.04691E+03  6.637E-01  1.482E+01  3.706E-02  1.221E+00
   1    9    6     6     1    1.1065E+01  2.2465E-01   1.0840E+01  0.000E+00  0.000E+00  0.000E+00  1.04347E+03  7.442E-01  1.200E+01  6.000E-02  1.248E+00
   1   10    7     6     2    1.0840E+01  2.2410E-01   1.0616E+01  0.000E+00  0.000E+00  0.000E+00  1.03892E+03  7.350E-01  1.200E+01  6.000E-02  1.245E+00
   1   11    7     6     3    1.0616E+01  2.2354E-01   1.0392E+01  0.000E+00  0.000E+00  0.000E+00  1.03436E+03  7.257E-01  1.200E+01  6.000E-02  1.242E+00
   1   12    7     6     4    1.0392E+01  2.2299E-01   1.0169E+01  0.000E+00  0.000E+00  0.000E+00  1.02981E+03  7.165E-01  1.200E+01  6.000E-02  1.239E+00
   1   13    7     6     5    1.0169E+01 -1.0974E-01   1.0279E+01  0.000E+00  0.000E+00  0.000E+00  1.02662E+03  7.141E-01  1.200E+01  2.400E-01 -1.524E-01
   1   14    9     7     1    1.5000E+02  1.3299E+00   1.4867E+02  0.000E+00  0.000E+00  0.000E+00  1.03987E+03  2.288E+00  5.529E+01  5.593E-01  7.926E-01
   1   13    8     7     2    1.4867E+02  1.8245E+00   1.4685E+02  0.000E+00  0.000E+00  0.000E+00  1.03478E+03  2.279E+00  5.526E+01  6.148E-01  9.892E-01
   1   13    7     7     3    1.4685E+02  1.4573E+00   1.4539E+02  0.000E+00  0.000E+00  0.000E+00  1.02969E+03  2.271E+00  5.522E+01  5.585E-01  8.698E-01
   1   13    6     8     1    1.5567E+02  8.1890E-01   1.5485E+02  0.000E+00  0.000E+00  0.000E+00  1.02473E+03  2.853E+00  4.138E+01  4.216E-01  6.474E-01
   1   13    5     8     2    1.5485E+02  9.0639E-02   1.5476E+02  0.000E+00  0.000E+00  0.000E+00  1.01848E+03  2.850E+00  4.133E+01  4.212E-01  7.174E-02
   1   13    4     8     3    1.5476E+02 -2.7168E+00   1.5747E+02  0.000E+00  0.000E+00  0.000E+00  1.01223E+03  2.859E+00  4.146E+01  4.225E+00 -2.143E-01
   1   13    3     8     4    1.5747E+02 -3.7756E+00   1.6125E+02  0.000E+00  0.000E+00  0.000E+00  1.00601E+03  2.882E+00  4.178E+01  4.258E+00 -2.956E-01
   1   13    2     8     5    1.6125E+02 -2.6098E+00   1.6386E+02  0.000E+00  0.000E+00  0.000E+00  9.99778E+02  2.903E+00  4.209E+01  4.290E+00 -2.028E-01
   1   13    1     8     6    1.6386E+02 -1.9855E+00   1.6585E+02  0.000E+00  0.000E+00  0.000E+00  9.94793E+02  2.918E+00  4.232E+01  2.587E+00 -2.558E-01



 UBDSV3 SAVING "           GW ET" ON UNIT  61 AT TIME STEP  1, STRESS PERIOD   1
 UBDSV3 SAVING "    UZF RECHARGE" ON UNIT  61 AT TIME STEP  1, STRESS PERIOD   1
 UBDSV3 SAVING " SURFACE LEAKAGE" ON UNIT  61 AT TIME STEP  1, STRESS PERIOD   1
 UBDSV3 SAVING "       HORT+DUNN" ON UNIT  61 AT TIME STEP  1, STRESS PERIOD   1
 UBDSV3 SAVING "  STORAGE CHANGE" ON UNIT  61 AT TIME STEP  1, STRESS PERIOD   1


UNSATURATED ZONE PACKAGE VOLUMETRIC BUDGET FOR  TIME STEP     1 STRESS PERIOD    1
  ------------------------------------------------------------------------------



     CUMULATIVE VOLUMES      L**3       RATES FOR THIS TIME STEP      L**3/T
     ------------------                 ------------------------

           IN:                                      IN:
           ---                                      ---
        INFILTRATION =       73224.0000          INFILTRATION =           0.8475

          OUT:                                     OUT:
          ----                                     ----
              UZF ET =       0.0000E+00                UZF ET =       0.0000E+00
        UZF RECHARGE =       73224.0000          UZF RECHARGE =           0.8475

            IN - OUT =       0.0000E+00              IN - OUT =       0.0000E+00

          STORAGE:                                 STORAGE:
          --------                                 --------
      STORAGE CHANGE =       0.0000E+00        STORAGE CHANGE =       0.0000E+00

 PERCENT DISCREPANCY IS DIFFERENCE BETWEEN IN-OUT MINUS CHANGE IN STORAGE
 DIVIDED BY THE AVERAGE OF IN AND OUT TIMES 100

 PERCENT DISCREPANCY =           0.00     PERCENT DISCREPANCY =           0.00






 

            AG WELLS      PERIOD    1   STEP   1
 AG WELL      1   LAYER   1   ROW     6   COL     4   RATE     0.00000    
 AG WELL      2   LAYER   1   ROW     6   COL     5   RATE     0.00000    
 AG WELL      3   LAYER   1   ROW     7   COL     4   RATE     0.00000    
 AG WELL      4   LAYER   1   ROW     7   COL     5   RATE     0.00000    
 AG WELL      5   LAYER   1   ROW     8   COL     4   RATE     0.00000    
 AG WELL      6   LAYER   1   ROW     8   COL     5   RATE     0.00000    
 
 

        GW IRRIGATION     PERIOD    1   STEP   1
 
1
  VOLUMETRIC BUDGET FOR AGRICULTURAL FIELDS AT TIME STEP    1, STRESS PERIOD   1
  ------------------------------------------------------------------------------

     CUMULATIVE VOLUMES      L**3       RATES FOR THIS TIME STEP      L**3/T
     ------------------                 ------------------------

           IN:                                      IN:
           ---                                      ---
               AG WELLS  =           0.0000                 AG WELLS  =           0.0000
      DIVERSION SEGMENTS =           0.0000        DIVERSION SEGMENTS =           0.0000
           GW IRRIGATION =           0.0000             GW IRRIGATION =           0.0000
           SW IRRIGATION =           0.0000             SW IRRIGATION =           0.0000
        SYSTEM LOSSES GW =           0.0000          SYSTEM LOSSES GW =           0.0000
        SYSTEM LOSSES SW =           0.0000          SYSTEM LOSSES SW =           0.0000

                TOTAL IN =           0.0000                  TOTAL IN =           0.0000

          OUT:                                     OUT:
          ----                                     ----
               AG WELLS  =           0.0000                 AG WELLS  =           0.0000
      DIVERSION SEGMENTS =           0.0000        DIVERSION SEGMENTS =           0.0000
           GW IRRIGATION =           0.0000             GW IRRIGATION =           0.0000
           SW IRRIGATION =           0.0000             SW IRRIGATION =           0.0000
        SYSTEM LOSSES GW =           0.0000          SYSTEM LOSSES GW =           0.0000
        SYSTEM LOSSES SW =           0.0000          SYSTEM LOSSES SW =           0.0000

               TOTAL OUT =           0.0000                 TOTAL OUT =           0.0000

                IN - OUT =           0.0000                  IN - OUT =           0.0000

     PERCENT DISCREPANCY =           0.00         PERCENT DISCREPANCY =           0.00



1
              HEAD IN LAYER   1 AT END OF TIME STEP   1 IN STRESS PERIOD    1
  ---------------------------------------------------------------------------

           1       2       3       4       5       6       7       8       9      10
 ...................................................................................
   1  1033.17 1032.00 6999.00 6999.00 6999.00 6999.00 6999.00 6999.00 6999.00 6999.00
   2  1032.08 1030.71 1030.04 6999.00 6999.00 1030.93 1031.07 1031.03 6999.00 6999.00
   3  6999.00 1029.69 1029.34 1029.07 1029.57 1030.17 1030.64 1030.60 6999.00 6999.00
   4  1028.87 1028.86 1028.67 1028.45 1028.51 1028.55 1029.02 1030.06 1029.78 6999.00
   5  1028.40 1028.03 1027.85 1027.76 1027.85 1028.05 1028.21 1028.69 1029.31 1029.84
   6  1027.82 1027.26 1027.06 1027.03 1027.15 1027.48 1027.76 1028.28 1028.73 1029.66
   7  1027.30 1026.29 1026.12 1026.16 1026.33 1026.75 1027.18 1027.65 1028.16 6999.00
   8  6999.00 1024.89 1024.93 1025.09 1025.32 1025.82 1026.26 1026.98 1027.53 6999.00
   9  6999.00 1022.84 1023.17 1023.63 1024.02 1024.68 1025.20 1025.94 1027.05 6999.00
  10  6999.00 1019.98 1020.75 1021.80 1022.59 1023.61 1024.52 1025.57 1027.18 1027.82
  11  6999.00 1015.43 1016.86 1019.41 1021.05 1022.78 1024.32 1026.09 1028.27 6999.00
  12  1001.93 1007.97 1012.12 1016.09 1019.38 1022.37 1024.86 1028.24 1031.23 6999.00
  13   995.56 1000.39 1006.89 1012.88 1018.26 1022.79 1027.08 1031.81 1034.64 6999.00
  14  6999.00 1005.80 1008.89 1013.55 1018.32 1022.73 1027.63 1033.09 1037.49 6999.00
  15  6999.00 6999.00 1012.53 1015.26 1018.74 1021.76 6999.00 6999.00 6999.00 6999.00

 HEAD WILL BE SAVED ON UNIT   62 AT END OF TIME STEP    1, STRESS PERIOD    1
1
  VOLUMETRIC BUDGET FOR ENTIRE MODEL AT END OF TIME STEP    1, STRESS PERIOD   1
  ------------------------------------------------------------------------------

     CUMULATIVE VOLUMES      L**3       RATES FOR THIS TIME STEP      L**3/T
     ------------------                 ------------------------

           IN:                                      IN:
           ---                                      ---
             STORAGE     =           0.0000               STORAGE     =           0.0000
       CONSTANT HEAD     =           0.0000         CONSTANT HEAD     =           0.0000
     HEAD DEP BOUNDS     =       24654.7383       HEAD DEP BOUNDS     =           0.2854
      STREAM LEAKAGE     =      894399.3125        STREAM LEAKAGE     =          10.3518
        UZF RECHARGE     =       73223.9531          UZF RECHARGE     =           0.8475
               GW ET     =           0.0000                 GW ET     =           0.0000
     SURFACE LEAKAGE     =           0.0000       SURFACE LEAKAGE     =           0.0000
           AG WELLS      =           0.0000             AG WELLS      =           0.0000

                TOTAL IN =      992278.0000                  TOTAL IN =          11.4847

          OUT:                                     OUT:
          ----                                     ----
             STORAGE     =           0.0000               STORAGE     =           0.0000
       CONSTANT HEAD     =           0.0000         CONSTANT HEAD     =           0.0000
     HEAD DEP BOUNDS     =       24823.4590       HEAD DEP BOUNDS     =           0.2873
      STREAM LEAKAGE     =      967454.4375        STREAM LEAKAGE     =          11.1974
        UZF RECHARGE     =           0.0000          UZF RECHARGE     =           0.0000
               GW ET     =           0.0000                 GW ET     =           0.0000
     SURFACE LEAKAGE     =           0.0000       SURFACE LEAKAGE     =           0.0000
           AG WELLS      =           0.0000             AG WELLS      =           0.0000

               TOTAL OUT =      992277.8750                 TOTAL OUT =          11.4847

                IN - OUT =           0.1250                  IN - OUT =       9.5367E-07

     PERCENT DISCREPANCY =           0.00         PERCENT DISCREPANCY =           0.00






         TIME SUMMARY AT END OF TIME STEP    1 IN STRESS PERIOD    1
                    SECONDS     MINUTES      HOURS       DAYS        YEARS
                    -----------------------------------------------------------
   TIME STEP LENGTH  86400.      1440.0      24.000      1.0000     2.73785E-03
 STRESS PERIOD TIME  86400.      1440.0      24.000      1.0000     2.73785E-03
         TOTAL TIME  86400.      1440.0      24.000      1.0000     2.73785E-03
1
1
                            STRESS PERIOD NO.    2, LENGTH =   2630000.    
                            -----------------------------------------------

                              NUMBER OF TIME STEPS =    30

                               MULTIPLIER FOR DELT =     1.000

                            INITIAL TIME STEP SIZE =   87666.66    

 REUSING NON-PARAMETER GHB CELLS FROM LAST STRESS PERIOD

      2 GHB CELLS

 REUSING STREAM SEGMENT DATA FROM LAST STRESS PERIOD



            AREAL INFILTRATION RATE
 READING ON UNIT   19 WITH FORMAT: (10F4.0)            

            1           2           3           4           5           6           7           8           9          10
 ........................................................................................................................
   1   1.2000E-09   0.000       0.000       0.000       0.000       0.000       0.000       0.000       0.000       0.000    
   2   2.1000E-09  2.0000E-09  8.0000E-10  8.5000E-09   0.000       0.000       0.000       0.000       0.000       0.000    
   3   5.0000E-10  1.1000E-09  8.8000E-09  5.5000E-09   0.000       0.000       0.000       0.000       0.000       0.000    
   4   8.5000E-09  1.1000E-09  1.1000E-09  1.1000E-09  2.0000E-09   0.000       0.000       0.000       0.000       0.000    
   5   8.5000E-09  1.1000E-09  1.1000E-09  1.1000E-09  1.1000E-09   0.000       0.000       0.000       0.000       0.000    
   6   8.5000E-09  5.2000E-09  2.1000E-09  1.1000E-09  1.5000E-09   0.000       0.000       0.000       0.000       0.000    
   7   8.5000E-09  5.2000E-09  2.1000E-09  1.2000E-09  2.0000E-09   0.000       0.000       0.000       0.000       0.000    
   8   5.0000E-10  5.2000E-09  2.1000E-09  1.2000E-09  5.0000E-09   0.000       0.000       0.000       0.000       0.000    
   9   5.0000E-10  5.2000E-09  2.1000E-09  1.2000E-09  5.0000E-09   0.000       0.000       0.000       0.000       0.000    
  10   5.0000E-10  5.2000E-09  2.1000E-09  1.2000E-09  5.8000E-09   0.000       0.000       0.000       0.000       0.000    
  11   1.0000E-10  1.1000E-09  1.1000E-09  1.2000E-09  5.0000E-09   0.000       0.000       0.000       0.000       0.000    
  12   1.1000E-09  1.1000E-09  1.1000E-09  1.1000E-09  2.0000E-09   0.000       0.000       0.000       0.000       0.000    
  13   1.1000E-09  2.2000E-09  2.2000E-09  2.1000E-09  1.0000E-09   0.000       0.000       0.000       0.000       0.000    
  14   2.0000E-10  5.5000E-09  5.5000E-09  5.2000E-09  1.0000E-09   0.000       0.000       0.000       0.000       0.000    
  15    0.000      8.8000E-09  8.8000E-09   0.000       0.000       0.000       0.000       0.000       0.000       0.000    

                  ET RATE =  5.000000E-10

 USING ET EXTINCTION DEPTH FROM PREVIOUS STRESS PERIOD. CURRENT PERIOD IS:       2

 USING EXTINCTION WATER CONTENT FROM PREVIOUS STRESS PERIOD. CURRENT PERIOD IS:       2

 USING AIR ENTRY PRESSURE FROM PREVIOUS STRESS PERIOD. CURRENT PERIOD IS:       2

 USING ROOT PRESSURE HEAD FROM PREVIOUS STRESS PERIOD. CURRENT PERIOD IS:       2

 USING ROOT ACTIVITY FROM PREVIOUS STRESS PERIOD. CURRENT PERIOD IS:       2

 PROCESSING AG STRESS PERIOD DATA

 READING AG STRESS PERIOD DATA

 READING IRRIGATION WELL

 END PROCESSING AG STRESS PERIOD DATA OPTIONS
 
 SOLVING FOR HEAD 
                                                   Max.-Head-Change                         Max.-Flux-Residual
  Residual-Control   Outer-Iter.   Inner-Iter.     Column Row Layer    Maximum-Head-Change  Column Row Layer    Maximum-Flux-Residual          L2-NORM 
          0                 1           2             4   13     1       0.6100933588E-02       4   13    1         0.3498426805E+00      0.7241932974E+00
          0                 2           2             4   13     1      -0.5804846473E-03       4   13    1        -0.3422479299E-01      0.7535293570E-01
          0                 3           1             4   13     1       0.3888649458E-04       4   13    1         0.2357261132E-02      0.5142098727E-02

    ------------------------------------------------
       NWT REQUIRED            3 OUTER ITERATIONS 
       AND A TOTAL OF          5 INNER ITERATIONS.
    ------------------------------------------------

 OUTPUT CONTROL FOR STRESS PERIOD    2   TIME STEP    1
    PRINT BUDGET
    PRINT HEAD FOR ALL LAYERS
    SAVE BUDGET
 UBDSV1 SAVING "         STORAGE" ON UNIT 102 AT TIME STEP  1, STRESS PERIOD   2
 UBDSV2 SAVING "   CONSTANT HEAD" ON UNIT 102 AT TIME STEP  1, STRESS PERIOD   2
 UBDSV1 SAVING "FLOW RIGHT FACE " ON UNIT 102 AT TIME STEP  1, STRESS PERIOD   2
 UBDSV1 SAVING "FLOW FRONT FACE " ON UNIT 102 AT TIME STEP  1, STRESS PERIOD   2

  HEAD DEP BOUNDS   PERIOD    2   STEP     1
 BOUNDARY      1   LAYER   1   ROW    13   COL     1   RATE   -0.287428    
 BOUNDARY      2   LAYER   1   ROW    14   COL     9   RATE    0.285357    



 STREAM LISTING     PERIOD      2   STEP        1

 LAYER ROW COL. STREAM  RCH.  FLOW INTO     FLOW TO   FLOW OUT OF   OVRLND.     DIRECT     STREAM       STREAM     STREAM     STREAM   STREAMBED  STREAMBED
                SEG.NO.  NO.  STRM. RCH.    AQUIFER    STRM. RCH.    RUNOFF     PRECIP       ET          HEAD       DEPTH      WIDTH   CONDCTNC.   GRADIENT

   1    1    1     1     1    2.2000E+01  2.3088E-01   2.1769E+01  0.000E+00  0.000E+00  0.000E+00  1.09418E+03  1.132E+00  1.242E+01  5.588E-02  1.377E+00
   1    2    2     1     2    2.1769E+01  3.5689E-01   2.1412E+01  0.000E+00  0.000E+00  0.000E+00  1.08919E+03  1.127E+00  1.235E+01  8.648E-02  1.376E+00
   1    3    3     1     3    2.1412E+01  3.0372E-01   2.1109E+01  0.000E+00  0.000E+00  0.000E+00  1.08354E+03  1.121E+00  1.228E+01  7.369E-02  1.374E+00
   1    3    4     1     4    2.1109E+01  2.7914E-01   2.0829E+01  0.000E+00  0.000E+00  0.000E+00  1.07852E+03  1.117E+00  1.222E+01  6.781E-02  1.372E+00
   1    4    5     2     1    1.8829E+01  3.1306E-01   1.8516E+01  0.000E+00  0.000E+00  0.000E+00  1.07295E+03  1.014E+00  1.200E+01  7.800E-02  1.338E+00
   1    5    6     2     2    1.8516E+01  2.4027E-01   1.8276E+01  0.000E+00  0.000E+00  0.000E+00  1.06751E+03  1.005E+00  1.200E+01  6.000E-02  1.335E+00
   1    6    6     2     3    1.8276E+01  2.3980E-01   1.8036E+01  0.000E+00  0.000E+00  0.000E+00  1.06279E+03  9.967E-01  1.200E+01  6.000E-02  1.332E+00
   1    7    6     2     4    1.8036E+01  2.3933E-01   1.7797E+01  0.000E+00  0.000E+00  0.000E+00  1.05806E+03  9.888E-01  1.200E+01  6.000E-02  1.330E+00
   1    8    6     2     5    1.7797E+01  2.3885E-01   1.7558E+01  0.000E+00  0.000E+00  0.000E+00  1.05334E+03  9.808E-01  1.200E+01  6.000E-02  1.327E+00
   1    3    5     3     1    2.0000E+00  2.8252E-01   1.7175E+00  0.000E+00  0.000E+00  0.000E+00  1.07555E+03  1.909E+00  9.636E+00  7.227E-02  1.955E+00
   1    3    6     3     2    1.7175E+00  2.4905E-01   1.4684E+00  0.000E+00  0.000E+00  0.000E+00  1.07264E+03  1.727E+00  8.909E+00  6.682E-02  1.864E+00
   1    3    7     3     3    1.4684E+00  1.9718E-01   1.2712E+00  0.000E+00  0.000E+00  0.000E+00  1.06987E+03  1.555E+00  8.218E+00  5.547E-02  1.777E+00
   1    4    8     3     4    1.2712E+00  2.2567E-01   1.0456E+00  0.000E+00  0.000E+00  0.000E+00  1.06682E+03  1.364E+00  7.455E+00  6.709E-02  1.682E+00
   1    5    8     3     5    1.0456E+00  1.5790E-01   8.8768E-01  0.000E+00  0.000E+00  0.000E+00  1.06362E+03  1.164E+00  6.655E+00  4.991E-02  1.582E+00
   1    6    8     3     6    8.8768E-01  5.5980E-02   8.3170E-01  0.000E+00  0.000E+00  0.000E+00  1.06158E+03  1.036E+00  6.145E+00  1.844E-02  1.518E+00
   1    5   10     4     1    1.0000E+01  9.0919E-02   9.9091E+00  0.000E+00  0.000E+00  0.000E+00  1.07836E+03  6.368E-01  1.000E+01  2.500E-02  1.212E+00
   1    5    9     4     2    9.9091E+00  1.8158E-01   9.7275E+00  0.000E+00  0.000E+00  0.000E+00  1.07154E+03  6.315E-01  1.000E+01  5.000E-02  1.211E+00
   1    6    8     4     3    9.7275E+00  1.2689E-01   9.6006E+00  0.000E+00  0.000E+00  0.000E+00  1.06381E+03  6.256E-01  1.000E+01  3.500E-02  1.209E+00
   1    6    8     5     1    1.0432E+01  2.2686E-01   1.0205E+01  0.000E+00  0.000E+00  0.000E+00  1.05868E+03  6.790E-01  1.542E+01  6.166E-02  1.226E+00
   1    7    7     5     2    1.0205E+01  2.7894E-01   9.9265E+00  0.000E+00  0.000E+00  0.000E+00  1.05417E+03  6.732E-01  1.519E+01  7.594E-02  1.224E+00
   1    8    7     5     3    9.9265E+00  1.9221E-01   9.7343E+00  0.000E+00  0.000E+00  0.000E+00  1.04992E+03  6.676E-01  1.497E+01  5.241E-02  1.223E+00
   1    8    6     5     4    9.7343E+00  1.3577E-01   9.5985E+00  0.000E+00  0.000E+00  0.000E+00  1.04691E+03  6.637E-01  1.482E+01  3.706E-02  1.221E+00
   1    9    6     6     1    2.7157E+01  2.5677E-01   2.6900E+01  0.000E+00  0.000E+00  0.000E+00  1.04401E+03  1.280E+00  1.200E+01  6.000E-02  1.427E+00
   1   10    7     6     2    2.6900E+01  2.5634E-01   2.6643E+01  0.000E+00  0.000E+00  0.000E+00  1.03945E+03  1.272E+00  1.200E+01  6.000E-02  1.424E+00
   1   11    7     6     3    2.6643E+01  2.5590E-01   2.6388E+01  0.000E+00  0.000E+00  0.000E+00  1.03490E+03  1.265E+00  1.200E+01  6.000E-02  1.422E+00
   1   12    7     6     4    2.6388E+01  2.5546E-01   2.6132E+01  0.000E+00  0.000E+00  0.000E+00  1.03035E+03  1.258E+00  1.200E+01  6.000E-02  1.419E+00
   1   13    7     6     5    2.6132E+01  1.9386E-03   2.6130E+01  0.000E+00  0.000E+00  0.000E+00  1.02716E+03  1.254E+00  1.200E+01  2.400E-02  2.692E-02
   1   14    9     7     1    1.5000E+02  1.3299E+00   1.4867E+02  0.000E+00  0.000E+00  0.000E+00  1.03987E+03  2.288E+00  5.529E+01  5.593E-01  7.926E-01
   1   13    8     7     2    1.4867E+02  1.8245E+00   1.4685E+02  0.000E+00  0.000E+00  0.000E+00  1.03478E+03  2.279E+00  5.526E+01  6.148E-01  9.892E-01
   1   13    7     7     3    1.4685E+02  1.4563E+00   1.4539E+02  0.000E+00  0.000E+00  0.000E+00  1.02969E+03  2.271E+00  5.522E+01  5.585E-01  8.692E-01
   1   13    6     8     1    1.7152E+02  8.9491E-01   1.7062E+02  0.000E+00  0.000E+00  0.000E+00  1.02483E+03  2.959E+00  4.291E+01  4.372E-01  6.822E-01
   1   13    5     8     2    1.7062E+02  1.3970E-01   1.7048E+02  0.000E+00  0.000E+00  0.000E+00  1.01858E+03  2.956E+00  4.286E+01  4.368E-01  1.066E-01
   1   13    4     8     3    1.7048E+02 -2.3855E+00   1.7287E+02  0.000E+00  0.000E+00  0.000E+00  1.01234E+03  2.963E+00  4.296E+01  4.378E+00 -1.816E-01
   1   13    3     8     4    1.7287E+02 -3.4863E+00   1.7636E+02  0.000E+00  0.000E+00  0.000E+00  1.00611E+03  2.982E+00  4.324E+01  4.406E+00 -2.637E-01
   1   13    2     8     5    1.7636E+02 -2.2902E+00   1.7865E+02  0.000E+00  0.000E+00  0.000E+00  9.99875E+02  3.000E+00  4.351E+01  4.433E+00 -1.722E-01
   1   13    1     8     6    1.7865E+02 -1.8047E+00   1.8045E+02  0.000E+00  0.000E+00  0.000E+00  9.94888E+02  3.013E+00  4.369E+01  2.671E+00 -2.252E-01



 UBDSV3 SAVING "           GW ET" ON UNIT  61 AT TIME STEP  1, STRESS PERIOD   2
 UBDSV3 SAVING "    UZF RECHARGE" ON UNIT  61 AT TIME STEP  1, STRESS PERIOD   2
 UBDSV3 SAVING " SURFACE LEAKAGE" ON UNIT  61 AT TIME STEP  1, STRESS PERIOD   2
 UBDSV3 SAVING "       HORT+DUNN" ON UNIT  61 AT TIME STEP  1, STRESS PERIOD   2
 UBDSV3 SAVING "  STORAGE CHANGE" ON UNIT  61 AT TIME STEP  1, STRESS PERIOD   2


UNSATURATED ZONE PACKAGE VOLUMETRIC BUDGET FOR  TIME STEP     1 STRESS PERIOD    2
  ------------------------------------------------------------------------------



     CUMULATIVE VOLUMES      L**3       RATES FOR THIS TIME STEP      L**3/T
     ------------------                 ------------------------

           IN:                                      IN:
           ---                                      ---
        INFILTRATION =      459614.8186          INFILTRATION =           4.4075

          OUT:                                     OUT:
          ----                                     ----
              UZF ET =       63558.2760                UZF ET =           0.7250
        UZF RECHARGE =       73224.0000          UZF RECHARGE =       0.0000E+00

            IN - OUT =      322832.5426              IN - OUT =           3.6825

          STORAGE:                                 STORAGE:
          --------                                 --------
      STORAGE CHANGE =      322832.5413        STORAGE CHANGE =           3.6825

 PERCENT DISCREPANCY IS DIFFERENCE BETWEEN IN-OUT MINUS CHANGE IN STORAGE
 DIVIDED BY THE AVERAGE OF IN AND OUT TIMES 100

 PERCENT DISCREPANCY =           0.00     PERCENT DISCREPANCY =           0.00






 

            AG WELLS      PERIOD    2   STEP   1
 AG WELL      1   LAYER   1   ROW     6   COL     4   RATE     0.00000    
 AG WELL      2   LAYER   1   ROW     6   COL     5   RATE     0.00000    
 AG WELL      3   LAYER   1   ROW     7   COL     4   RATE     0.00000    
 AG WELL      4   LAYER   1   ROW     7   COL     5   RATE     0.00000    
 AG WELL      5   LAYER   1   ROW     8   COL     4   RATE     0.00000    
 AG WELL      6   LAYER   1   ROW     8   COL     5   RATE     0.00000    
 
 

        GW IRRIGATION     PERIOD    2   STEP   1
 
1
  VOLUMETRIC BUDGET FOR AGRICULTURAL FIELDS AT TIME STEP    1, STRESS PERIOD   2
  ------------------------------------------------------------------------------

     CUMULATIVE VOLUMES      L**3       RATES FOR THIS TIME STEP      L**3/T
     ------------------                 ------------------------

           IN:                                      IN:
           ---                                      ---
               AG WELLS  =           0.0000                 AG WELLS  =           0.0000
      DIVERSION SEGMENTS =           0.0000        DIVERSION SEGMENTS =           0.0000
           GW IRRIGATION =           0.0000             GW IRRIGATION =           0.0000
           SW IRRIGATION =           0.0000             SW IRRIGATION =           0.0000
        SYSTEM LOSSES GW =           0.0000          SYSTEM LOSSES GW =           0.0000
        SYSTEM LOSSES SW =           0.0000          SYSTEM LOSSES SW =           0.0000

                TOTAL IN =           0.0000                  TOTAL IN =           0.0000

          OUT:                                     OUT:
          ----                                     ----
               AG WELLS  =           0.0000                 AG WELLS  =           0.0000
      DIVERSION SEGMENTS =           0.0000        DIVERSION SEGMENTS =           0.0000
           GW IRRIGATION =           0.0000             GW IRRIGATION =           0.0000
           SW IRRIGATION =           0.0000             SW IRRIGATION =           0.0000
        SYSTEM LOSSES GW =           0.0000          SYSTEM LOSSES GW =           0.0000
        SYSTEM LOSSES SW =           0.0000          SYSTEM LOSSES SW =           0.0000

               TOTAL OUT =           0.0000                 TOTAL OUT =           0.0000

                IN - OUT =           0.0000                  IN - OUT =           0.0000

     PERCENT DISCREPANCY =           0.00         PERCENT DISCREPANCY =           0.00



1
              HEAD IN LAYER   1 AT END OF TIME STEP   1 IN STRESS PERIOD    2
  ---------------------------------------------------------------------------

           1       2       3       4       5       6       7       8       9      10
 ...................................................................................
   1  1033.17 1032.00 6999.00 6999.00 6999.00 6999.00 6999.00 6999.00 6999.00 6999.00
   2  1032.08 1030.72 1030.04 6999.00 6999.00 1030.93 1031.07 1031.03 6999.00 6999.00
   3  6999.00 1029.69 1029.34 1029.07 1029.57 1030.17 1030.64 1030.60 6999.00 6999.00
   4  1028.87 1028.86 1028.67 1028.45 1028.51 1028.55 1029.02 1030.06 1029.78 6999.00
   5  1028.40 1028.03 1027.85 1027.76 1027.85 1028.05 1028.21 1028.69 1029.31 1029.84
   6  1027.82 1027.26 1027.06 1027.03 1027.15 1027.48 1027.76 1028.28 1028.73 1029.66
   7  1027.30 1026.29 1026.12 1026.16 1026.33 1026.75 1027.18 1027.65 1028.15 6999.00
   8  6999.00 1024.89 1024.92 1025.09 1025.32 1025.83 1026.26 1026.98 1027.53 6999.00
   9  6999.00 1022.84 1023.17 1023.63 1024.02 1024.68 1025.20 1025.94 1027.05 6999.00
  10  6999.00 1019.98 1020.75 1021.80 1022.59 1023.61 1024.52 1025.57 1027.18 1027.82
  11  6999.00 1015.43 1016.86 1019.41 1021.05 1022.78 1024.32 1026.09 1028.27 6999.00
  12  1001.93 1007.97 1012.12 1016.09 1019.38 1022.37 1024.86 1028.24 1031.22 6999.00
  13   995.56 1000.39 1006.90 1012.88 1018.26 1022.79 1027.08 1031.81 1034.64 6999.00
  14  6999.00 1005.80 1008.89 1013.55 1018.32 1022.73 1027.63 1033.09 1037.49 6999.00
  15  6999.00 6999.00 1012.53 1015.26 1018.74 1021.76 6999.00 6999.00 6999.00 6999.00
1
  VOLUMETRIC BUDGET FOR ENTIRE MODEL AT END OF TIME STEP    1, STRESS PERIOD   2
  ------------------------------------------------------------------------------

     CUMULATIVE VOLUMES      L**3       RATES FOR THIS TIME STEP      L**3/T
     ------------------                 ------------------------

           IN:                                      IN:
           ---                                      ---
             STORAGE     =       66398.0000               STORAGE     =           0.7574
       CONSTANT HEAD     =           0.0000         CONSTANT HEAD     =           0.0000
     HEAD DEP BOUNDS     =       49671.0742       HEAD DEP BOUNDS     =           0.2854
      STREAM LEAKAGE     =     1903893.5000        STREAM LEAKAGE     =          11.5151
        UZF RECHARGE     =       73223.9531          UZF RECHARGE     =           0.0000
               GW ET     =           0.0000                 GW ET     =           0.0000
     SURFACE LEAKAGE     =           0.0000       SURFACE LEAKAGE     =           0.0000
           AG WELLS      =           0.0000             AG WELLS      =           0.0000

                TOTAL IN =     2093186.6250                  TOTAL IN =          12.5579

          OUT:                                     OUT:
          ----                                     ----
             STORAGE     =      201998.7969               STORAGE     =           2.3042
       CONSTANT HEAD     =           0.0000         CONSTANT HEAD     =           0.0000
     HEAD DEP BOUNDS     =       50021.2812       HEAD DEP BOUNDS     =           0.2874
      STREAM LEAKAGE     =     1841208.7500        STREAM LEAKAGE     =           9.9668
        UZF RECHARGE     =           0.0000          UZF RECHARGE     =           0.0000
               GW ET     =           0.0000                 GW ET     =           0.0000
     SURFACE LEAKAGE     =           0.0000       SURFACE LEAKAGE     =           0.0000
           AG WELLS      =           0.0000             AG WELLS      =           0.0000

               TOTAL OUT =     2093228.8750                 TOTAL OUT =          12.5584

                IN - OUT =         -42.2500                  IN - OUT =      -4.8351E-04

     PERCENT DISCREPANCY =          -0.00         PERCENT DISCREPANCY =          -0.00






         TIME SUMMARY AT END OF TIME STEP    1 IN STRESS PERIOD    2
                    SECONDS     MINUTES      HOURS       DAYS        YEARS
                    -----------------------------------------------------------
   TIME STEP LENGTH  87667.      1461.1      24.352      1.0147     2.77799E-03
 STRESS PERIOD TIME  87667.      1461.1      24.352      1.0147     2.77799E-03
         TOTAL TIME 1.74067E+05  2901.1      48.352      2.0147     5.51584E-03
1
 
 SOLVING FOR HEAD 
                                                   Max.-Head-Change                         Max.-Flux-Residual
  Residual-Control   Outer-Iter.   Inner-Iter.     Column Row Layer    Maximum-Head-Change  Column Row Layer    Maximum-Flux-Residual          L2-NORM 
          0                 1           2             2   13     1       0.5599472638E-02       4   13    1         0.3174746066E+00      0.6799940781E+00
          0                 2           2             4   13     1      -0.5332679198E-03       4   13    1        -0.3142317215E-01      0.6665586093E-01
          0                 3           1             4   13     1       0.3579168577E-04       4   13    1         0.2168417893E-02      0.4540478896E-02

    ------------------------------------------------
       NWT REQUIRED            3 OUTER ITERATIONS 
       AND A TOTAL OF          5 INNER ITERATIONS.
    ------------------------------------------------

 NO OUTPUT CONTROL FOR STRESS PERIOD    2   TIME STEP    2
 
 SOLVING FOR HEAD 
                                                   Max.-Head-Change                         Max.-Flux-Residual
  Residual-Control   Outer-Iter.   Inner-Iter.     Column Row Layer    Maximum-Head-Change  Column Row Layer    Maximum-Flux-Residual          L2-NORM 
          0                 1           2             2   13     1       0.5185880828E-02       2   13    1         0.2917483498E+00      0.6422041192E+00
          0                 2           2             4   13     1      -0.4838728776E-03       4   13    1        -0.2849600181E-01      0.6300639574E-01
          0                 3           1             4   13     1       0.3246909278E-04       4   13    1         0.1965964619E-02      0.4297127900E-02

    ------------------------------------------------
       NWT REQUIRED            3 OUTER ITERATIONS 
       AND A TOTAL OF          5 INNER ITERATIONS.
    ------------------------------------------------

 NO OUTPUT CONTROL FOR STRESS PERIOD    2   TIME STEP    3
 
 SOLVING FOR HEAD 
                                                   Max.-Head-Change                         Max.-Flux-Residual
  Residual-Control   Outer-Iter.   Inner-Iter.     Column Row Layer    Maximum-Head-Change  Column Row Layer    Maximum-Flux-Residual          L2-NORM 
          0                 1           2             2   13     1       0.4803149872E-02       2   13    1         0.2701870936E+00      0.6081803934E+00
          0                 2           2             2   13     1      -0.4473286772E-03       2   13    1        -0.2586640444E-01      0.5972360667E-01
          0                 3           1             4   13     1       0.2946394646E-04       4   13    1         0.1782900270E-02      0.4078823521E-02

    ------------------------------------------------
       NWT REQUIRED            3 OUTER ITERATIONS 
       AND A TOTAL OF          5 INNER ITERATIONS.
    ------------------------------------------------

 NO OUTPUT CONTROL FOR STRESS PERIOD    2   TIME STEP    4
 
 SOLVING FOR HEAD 
                                                   Max.-Head-Change                         Max.-Flux-Residual
  Residual-Control   Outer-Iter.   Inner-Iter.     Column Row Layer    Maximum-Head-Change  Column Row Layer    Maximum-Flux-Residual          L2-NORM 
          0                 1           2             2   13     1       0.4449046293E-02       2   13    1         0.2502398803E+00      0.5775478023E+00
          0                 2           2             2   13     1      -0.4144849651E-03       2   13    1        -0.2396443555E-01      0.5676812556E-01
          0                 3           1             4   13     1       0.2676329284E-04       4   13    1         0.1618472937E-02      0.3881411289E-02

    ------------------------------------------------
       NWT REQUIRED            3 OUTER ITERATIONS 
       AND A TOTAL OF          5 INNER ITERATIONS.
    ------------------------------------------------

 NO OUTPUT CONTROL FOR STRESS PERIOD    2   TIME STEP    5
 
 SOLVING FOR HEAD 
                                                   Max.-Head-Change                         Max.-Flux-Residual
  Residual-Control   Outer-Iter.   Inner-Iter.     Column Row Layer    Maximum-Head-Change  Column Row Layer    Maximum-Flux-Residual          L2-NORM 
          0                 1           2             2   13     1       0.4121422067E-02       2   13    1         0.2317854689E+00      0.5499867740E+00
          0                 2           2             2   13     1      -0.3840912296E-03       2   13    1        -0.2220444906E-01      0.5411228144E-01
          0                 3           1             2    2     1       0.2466198565E-04       4   13    1         0.1471128990E-02      0.3705975941E-02

    ------------------------------------------------
       NWT REQUIRED            3 OUTER ITERATIONS 
       AND A TOTAL OF          5 INNER ITERATIONS.
    ------------------------------------------------

 NO OUTPUT CONTROL FOR STRESS PERIOD    2   TIME STEP    6
 
 SOLVING FOR HEAD 
                                                   Max.-Head-Change                         Max.-Flux-Residual
  Residual-Control   Outer-Iter.   Inner-Iter.     Column Row Layer    Maximum-Head-Change  Column Row Layer    Maximum-Flux-Residual          L2-NORM 
          0                 1           2             2   13     1       0.3818215628E-02       2   13    1         0.2147075361E+00      0.5251891292E+00
          0                 2           2             2    2     1      -0.3594199378E-03       2   13    1        -0.2057549705E-01      0.5172366194E-01
          0                 3           1             2    2     1       0.2447515955E-04       2   13    1         0.1355381101E-02      0.3546983824E-02

    ------------------------------------------------
       NWT REQUIRED            3 OUTER ITERATIONS 
       AND A TOTAL OF          5 INNER ITERATIONS.
    ------------------------------------------------

 NO OUTPUT CONTROL FOR STRESS PERIOD    2   TIME STEP    7
 
 SOLVING FOR HEAD 
                                                   Max.-Head-Change                         Max.-Flux-Residual
  Residual-Control   Outer-Iter.   Inner-Iter.     Column Row Layer    Maximum-Head-Change  Column Row Layer    Maximum-Flux-Residual          L2-NORM 
          0                 1           2             2    2     1       0.3667086253E-02       2   13    1         0.1989106778E+00      0.5028816091E+00
          0                 2           2             2    2     1      -0.3567080803E-03       2    2    1        -0.1917041245E-01      0.4957450291E-01
          0                 3           1             2    2     1       0.2429049216E-04       2    2    1         0.1341929086E-02      0.3403336289E-02

    ------------------------------------------------
       NWT REQUIRED            3 OUTER ITERATIONS 
       AND A TOTAL OF          5 INNER ITERATIONS.
    ------------------------------------------------

 NO OUTPUT CONTROL FOR STRESS PERIOD    2   TIME STEP    8
 
 SOLVING FOR HEAD 
                                                   Max.-Head-Change                         Max.-Flux-Residual
  Residual-Control   Outer-Iter.   Inner-Iter.     Column Row Layer    Maximum-Head-Change  Column Row Layer    Maximum-Flux-Residual          L2-NORM 
          0                 1           2             2    2     1       0.3639701471E-02       2    2    1         0.1902628019E+00      0.4828026493E+00
          0                 2           2             2    2     1      -0.3540442758E-03       2    2    1        -0.1902631824E-01      0.4764171847E-01
          0                 3           1             2    2     1       0.2410909724E-04       2    2    1         0.1331842492E-02      0.3275898930E-02

    ------------------------------------------------
       NWT REQUIRED            3 OUTER ITERATIONS 
       AND A TOTAL OF          5 INNER ITERATIONS.
    ------------------------------------------------

 NO OUTPUT CONTROL FOR STRESS PERIOD    2   TIME STEP    9
 
 SOLVING FOR HEAD 
                                                   Max.-Head-Change                         Max.-Flux-Residual
  Residual-Control   Outer-Iter.   Inner-Iter.     Column Row Layer    Maximum-Head-Change  Column Row Layer    Maximum-Flux-Residual          L2-NORM 
          0                 1           2             2    2     1       0.3612629558E-02       2    2    1         0.1888383788E+00      0.4647324790E+00
          0                 2           2             2    2     1      -0.3514109046E-03       2    2    1        -0.1888387514E-01      0.4590420493E-01
          0                 3           1             2    2     1       0.2392977393E-04       2    2    1         0.1321871460E-02      0.3160856889E-02

    ------------------------------------------------
       NWT REQUIRED            3 OUTER ITERATIONS 
       AND A TOTAL OF          5 INNER ITERATIONS.
    ------------------------------------------------

 NO OUTPUT CONTROL FOR STRESS PERIOD    2   TIME STEP   10
 
 SOLVING FOR HEAD 
                                                   Max.-Head-Change                         Max.-Flux-Residual
  Residual-Control   Outer-Iter.   Inner-Iter.     Column Row Layer    Maximum-Head-Change  Column Row Layer    Maximum-Flux-Residual          L2-NORM 
          0                 1           2             2    2     1       0.3585951668E-02       2    2    1         0.1874347287E+00      0.4484532590E+00
          0                 2           2             2    2     1      -0.3488158623E-03       2    2    1        -0.1874350939E-01      0.4433592036E-01
          0                 3           1             2    2     1       0.2375306183E-04       2    2    1         0.1312045876E-02      0.3055638514E-02

    ------------------------------------------------
       NWT REQUIRED            3 OUTER ITERATIONS 
       AND A TOTAL OF          5 INNER ITERATIONS.
    ------------------------------------------------

 NO OUTPUT CONTROL FOR STRESS PERIOD    2   TIME STEP   11
 
 SOLVING FOR HEAD 
                                                   Max.-Head-Change                         Max.-Flux-Residual
  Residual-Control   Outer-Iter.   Inner-Iter.     Column Row Layer    Maximum-Head-Change  Column Row Layer    Maximum-Flux-Residual          L2-NORM 
          0                 1           2             2    2     1       0.3559572015E-02       2    2    1         0.1860468397E+00      0.4337719652E+00
          0                 2           2             2    2     1      -0.3462498304E-03       2    2    1        -0.1860471974E-01      0.4292393359E-01
          0                 3           1             2    2     1       0.2357832430E-04       2    2    1         0.1302330602E-02      0.2962715475E-02

    ------------------------------------------------
       NWT REQUIRED            3 OUTER ITERATIONS 
       AND A TOTAL OF          5 INNER ITERATIONS.
    ------------------------------------------------

 NO OUTPUT CONTROL FOR STRESS PERIOD    2   TIME STEP   12
 
 SOLVING FOR HEAD 
                                                   Max.-Head-Change                         Max.-Flux-Residual
  Residual-Control   Outer-Iter.   Inner-Iter.     Column Row Layer    Maximum-Head-Change  Column Row Layer    Maximum-Flux-Residual          L2-NORM 
          0                 1           2             2    2     1       0.3533663965E-02       2    2    1         0.1846837513E+00      0.4205330924E+00
          0                 2           2             2    2     1      -0.3437296729E-03       2    2    1        -0.1846841020E-01      0.4164887527E-01
          0                 3           1             2    2     1       0.2340671132E-04       2    2    1         0.1292788948E-02      0.2877927275E-02

    ------------------------------------------------
       NWT REQUIRED            3 OUTER ITERATIONS 
       AND A TOTAL OF          5 INNER ITERATIONS.
    ------------------------------------------------

 NO OUTPUT CONTROL FOR STRESS PERIOD    2   TIME STEP   13
 
 SOLVING FOR HEAD 
                                                   Max.-Head-Change                         Max.-Flux-Residual
  Residual-Control   Outer-Iter.   Inner-Iter.     Column Row Layer    Maximum-Head-Change  Column Row Layer    Maximum-Flux-Residual          L2-NORM 
          0                 1           2             2    2     1       0.3508044137E-02       2    2    1         0.1833358946E+00      0.4085697477E+00
          0                 2           2             2    2     1      -0.3412375519E-03       2    2    1        -0.1833362384E-01      0.4049770210E-01
          0                 3           1             2    2     1       0.2323700759E-04       2    2    1         0.1283353913E-02      0.2801326680E-02

    ------------------------------------------------
       NWT REQUIRED            3 OUTER ITERATIONS 
       AND A TOTAL OF          5 INNER ITERATIONS.
    ------------------------------------------------

 NO OUTPUT CONTROL FOR STRESS PERIOD    2   TIME STEP   14
 
 SOLVING FOR HEAD 
                                                   Max.-Head-Change                         Max.-Flux-Residual
  Residual-Control   Outer-Iter.   Inner-Iter.     Column Row Layer    Maximum-Head-Change  Column Row Layer    Maximum-Flux-Residual          L2-NORM 
          0                 1           2             2    2     1       0.3482794150E-02       2    2    1         0.1820075335E+00      0.3977352668E+00
          0                 2           2             2    2     1      -0.3387814064E-03       2    2    1        -0.1820078705E-01      0.3945336747E-01
          0                 3           1             2    2     1       0.2306975296E-04       2    2    1         0.1274055338E-02      0.2731925337E-02

    ------------------------------------------------
       NWT REQUIRED            3 OUTER ITERATIONS 
       AND A TOTAL OF          5 INNER ITERATIONS.
    ------------------------------------------------

 NO OUTPUT CONTROL FOR STRESS PERIOD    2   TIME STEP   15
 
 SOLVING FOR HEAD 
                                                   Max.-Head-Change                         Max.-Flux-Residual
  Residual-Control   Outer-Iter.   Inner-Iter.     Column Row Layer    Maximum-Head-Change  Column Row Layer    Maximum-Flux-Residual          L2-NORM 
          0                 1           2             2    2     1       0.3457908342E-02       2    2    1         0.1806983483E+00      0.3879265949E+00
          0                 2           2             2    2     1      -0.3363606859E-03       2    2    1        -0.1806986788E-01      0.3850834439E-01
          0                 3           1             2    2     1       0.2290491074E-04       2    2    1         0.1264890986E-02      0.2669558507E-02

    ------------------------------------------------
       NWT REQUIRED            3 OUTER ITERATIONS 
       AND A TOTAL OF          5 INNER ITERATIONS.
    ------------------------------------------------

 NO OUTPUT CONTROL FOR STRESS PERIOD    2   TIME STEP   16
 
 SOLVING FOR HEAD 
                                                   Max.-Head-Change                         Max.-Flux-Residual
  Residual-Control   Outer-Iter.   Inner-Iter.     Column Row Layer    Maximum-Head-Change  Column Row Layer    Maximum-Flux-Residual          L2-NORM 
          0                 1           2             2    2     1       0.3433381133E-02       2    2    1         0.1794080454E+00      0.3790056042E+00
          0                 2           2             2    2     1      -0.3339748476E-03       2    2    1        -0.1794083694E-01      0.3764796038E-01
          0                 3           1             2    2     1       0.2274244447E-04       2    2    1         0.1255858824E-02      0.2612242871E-02

    ------------------------------------------------
       NWT REQUIRED            3 OUTER ITERATIONS 
       AND A TOTAL OF          5 INNER ITERATIONS.
    ------------------------------------------------

 NO OUTPUT CONTROL FOR STRESS PERIOD    2   TIME STEP   17
 
 SOLVING FOR HEAD 
                                                   Max.-Head-Change                         Max.-Flux-Residual
  Residual-Control   Outer-Iter.   Inner-Iter.     Column Row Layer    Maximum-Head-Change  Column Row Layer    Maximum-Flux-Residual          L2-NORM 
          0                 1           2             2    2     1       0.3409206291E-02       2    2    1         0.1781363355E+00      0.3708960378E+00
          0                 2           2             2    2     1      -0.3316232849E-03       2    2    1        -0.1781366531E-01      0.3686534410E-01
          0                 3           1             2    2     1       0.2258231158E-04       2    2    1         0.1246956807E-02      0.2559405676E-02

    ------------------------------------------------
       NWT REQUIRED            3 OUTER ITERATIONS 
       AND A TOTAL OF          5 INNER ITERATIONS.
    ------------------------------------------------

 NO OUTPUT CONTROL FOR STRESS PERIOD    2   TIME STEP   18
 
 SOLVING FOR HEAD 
                                                   Max.-Head-Change                         Max.-Flux-Residual
  Residual-Control   Outer-Iter.   Inner-Iter.     Column Row Layer    Maximum-Head-Change  Column Row Layer    Maximum-Flux-Residual          L2-NORM 
          0                 1           2             2    2     1       0.3385291323E-02       2    2    1         0.1768783432E+00      0.3634935410E+00
          0                 2           2             2    2     1      -0.3292970014E-03       2    2    1        -0.1768786548E-01      0.3615014025E-01
          0                 3           1             2    2     1       0.2242390000E-04       2    2    1         0.1238150812E-02      0.2512721609E-02

    ------------------------------------------------
       NWT REQUIRED            3 OUTER ITERATIONS 
       AND A TOTAL OF          5 INNER ITERATIONS.
    ------------------------------------------------

 NO OUTPUT CONTROL FOR STRESS PERIOD    2   TIME STEP   19
 
 SOLVING FOR HEAD 
                                                   Max.-Head-Change                         Max.-Flux-Residual
  Residual-Control   Outer-Iter.   Inner-Iter.     Column Row Layer    Maximum-Head-Change  Column Row Layer    Maximum-Flux-Residual          L2-NORM 
          0                 1           2             2    2     1       0.3361718351E-02       2    2    1         0.1756383772E+00      0.3567229331E+00
          0                 2           2             2    2     1      -0.3270039852E-03       2    2    1        -0.1756386827E-01      0.3549537647E-01
          0                 3           1             2    2     1       0.2226775481E-04       2    2    1         0.1229471030E-02      0.2468520744E-02

    ------------------------------------------------
       NWT REQUIRED            3 OUTER ITERATIONS 
       AND A TOTAL OF          5 INNER ITERATIONS.
    ------------------------------------------------

 NO OUTPUT CONTROL FOR STRESS PERIOD    2   TIME STEP   20
 
 SOLVING FOR HEAD 
                                                   Max.-Head-Change                         Max.-Flux-Residual
  Residual-Control   Outer-Iter.   Inner-Iter.     Column Row Layer    Maximum-Head-Change  Column Row Layer    Maximum-Flux-Residual          L2-NORM 
          0                 1           2             2    2     1       0.3338482213E-02       2    2    1         0.1744161433E+00      0.3505174866E+00
          0                 2           2             2    2     1      -0.3247437340E-03       2    2    1        -0.1744164432E-01      0.3489468709E-01
          0                 3           1             2    2     1       0.2211383979E-04       2    2    1         0.1220915344E-02      0.2428150674E-02

    ------------------------------------------------
       NWT REQUIRED            3 OUTER ITERATIONS 
       AND A TOTAL OF          5 INNER ITERATIONS.
    ------------------------------------------------

 NO OUTPUT CONTROL FOR STRESS PERIOD    2   TIME STEP   21
 
 SOLVING FOR HEAD 
                                                   Max.-Head-Change                         Max.-Flux-Residual
  Residual-Control   Outer-Iter.   Inner-Iter.     Column Row Layer    Maximum-Head-Change  Column Row Layer    Maximum-Flux-Residual          L2-NORM 
          0                 1           2             2    2     1       0.3315577025E-02       2    2    1         0.1732113740E+00      0.3448125255E+00
          0                 2           2             2    2     1      -0.3225156752E-03       2    2    1        -0.1732116682E-01      0.3434182309E-01
          0                 3           1             2    2     1       0.2196211755E-04       2    2    1         0.1212481933E-02      0.2391386334E-02

    ------------------------------------------------
       NWT REQUIRED            3 OUTER ITERATIONS 
       AND A TOTAL OF          5 INNER ITERATIONS.
    ------------------------------------------------

 NO OUTPUT CONTROL FOR STRESS PERIOD    2   TIME STEP   22
 
 SOLVING FOR HEAD 
                                                   Max.-Head-Change                         Max.-Flux-Residual
  Residual-Control   Outer-Iter.   Inner-Iter.     Column Row Layer    Maximum-Head-Change  Column Row Layer    Maximum-Flux-Residual          L2-NORM 
          0                 1           2             2    2     1       0.3292997775E-02       2    2    1         0.1720237641E+00      0.3395514433E+00
          0                 2           2             2    2     1      -0.3203193212E-03       2    2    1        -0.1720240527E-01      0.3383120606E-01
          0                 3           1             2    2     1       0.2181255377E-04       2    2    1         0.1204168607E-02      0.2356529152E-02

    ------------------------------------------------
       NWT REQUIRED            3 OUTER ITERATIONS 
       AND A TOTAL OF          5 INNER ITERATIONS.
    ------------------------------------------------

 NO OUTPUT CONTROL FOR STRESS PERIOD    2   TIME STEP   23
 
 SOLVING FOR HEAD 
                                                   Max.-Head-Change                         Max.-Flux-Residual
  Residual-Control   Outer-Iter.   Inner-Iter.     Column Row Layer    Maximum-Head-Change  Column Row Layer    Maximum-Flux-Residual          L2-NORM 
          0                 1           2             2    2     1       0.3270656940E-02       2    2    1         0.1708487351E+00      0.3346884534E+00
          0                 2           2             2    2     1      -0.3181461588E-03       2    2    1        -0.1708490182E-01      0.3335826513E-01
          0                 3           1             2    2     1       0.2166456978E-04       2    2    1         0.1195943378E-02      0.2324902673E-02

    ------------------------------------------------
       NWT REQUIRED            3 OUTER ITERATIONS 
       AND A TOTAL OF          5 INNER ITERATIONS.
    ------------------------------------------------

 NO OUTPUT CONTROL FOR STRESS PERIOD    2   TIME STEP   24
 
 SOLVING FOR HEAD 
                                                   Max.-Head-Change                         Max.-Flux-Residual
  Residual-Control   Outer-Iter.   Inner-Iter.     Column Row Layer    Maximum-Head-Change  Column Row Layer    Maximum-Flux-Residual          L2-NORM 
          0                 1           2             2    2     1       0.3248715189E-02       2    2    1         0.1696947049E+00      0.3301814814E+00
          0                 2           2             2    2     1      -0.3160118169E-03       2    2    1        -0.1696949827E-01      0.3291994852E-01
          0                 3           1             2    2     1       0.2151922920E-04       2    2    1         0.1187865136E-02      0.2295273901E-02

    ------------------------------------------------
       NWT REQUIRED            3 OUTER ITERATIONS 
       AND A TOTAL OF          5 INNER ITERATIONS.
    ------------------------------------------------

 NO OUTPUT CONTROL FOR STRESS PERIOD    2   TIME STEP   25
 
 SOLVING FOR HEAD 
                                                   Max.-Head-Change                         Max.-Flux-Residual
  Residual-Control   Outer-Iter.   Inner-Iter.     Column Row Layer    Maximum-Head-Change  Column Row Layer    Maximum-Flux-Residual          L2-NORM 
          0                 1           2             2    2     1       0.3226996659E-02       2    2    1         0.1685524951E+00      0.3259932157E+00
          0                 2           2             2    2     1      -0.3138991882E-03       2    2    1        -0.1685527677E-01      0.3251198406E-01
          0                 3           1             2    2     1       0.2137536712E-04       2    2    1         0.1179869630E-02      0.2267831282E-02

    ------------------------------------------------
       NWT REQUIRED            3 OUTER ITERATIONS 
       AND A TOTAL OF          5 INNER ITERATIONS.
    ------------------------------------------------

 NO OUTPUT CONTROL FOR STRESS PERIOD    2   TIME STEP   26
 
 SOLVING FOR HEAD 
                                                   Max.-Head-Change                         Max.-Flux-Residual
  Residual-Control   Outer-Iter.   Inner-Iter.     Column Row Layer    Maximum-Head-Change  Column Row Layer    Maximum-Flux-Residual          L2-NORM 
          0                 1           2             2    2     1       0.3205584892E-02       2    2    1         0.1674264121E+00      0.3220846588E+00
          0                 2           2             2    2     1      -0.3118163999E-03       2    2    1        -0.1674266798E-01      0.3213044134E-01
          0                 3           1             2    2     1       0.2123353711E-04       2    2    1         0.1171987018E-02      0.2242180134E-02

    ------------------------------------------------
       NWT REQUIRED            3 OUTER ITERATIONS 
       AND A TOTAL OF          5 INNER ITERATIONS.
    ------------------------------------------------

 NO OUTPUT CONTROL FOR STRESS PERIOD    2   TIME STEP   27
 
 SOLVING FOR HEAD 
                                                   Max.-Head-Change                         Max.-Flux-Residual
  Residual-Control   Outer-Iter.   Inner-Iter.     Column Row Layer    Maximum-Head-Change  Column Row Layer    Maximum-Flux-Residual          L2-NORM 
          0                 1           2             2    2     1       0.3184474483E-02       2    2    1         0.1663162344E+00      0.3184309175E+00
          0                 2           2             2    2     1      -0.3097629249E-03       2    2    1        -0.1663164970E-01      0.3177375534E-01
          0                 3           1             2    2     1       0.2109370296E-04       2    2    1         0.1164215724E-02      0.2217504410E-02

    ------------------------------------------------
       NWT REQUIRED            3 OUTER ITERATIONS 
       AND A TOTAL OF          5 INNER ITERATIONS.
    ------------------------------------------------

 NO OUTPUT CONTROL FOR STRESS PERIOD    2   TIME STEP   28
 
 SOLVING FOR HEAD 
                                                   Max.-Head-Change                         Max.-Flux-Residual
  Residual-Control   Outer-Iter.   Inner-Iter.     Column Row Layer    Maximum-Head-Change  Column Row Layer    Maximum-Flux-Residual          L2-NORM 
          0                 1           2             2    2     1       0.3163660992E-02       2    2    1         0.1652216818E+00      0.3150072269E+00
          0                 2           2             2    2     1      -0.3077383323E-03       2    2    1        -0.1652219395E-01      0.3143881609E-01
          0                 3           1             2    2     1       0.2095583581E-04       2    2    1         0.1156553823E-02      0.2195133435E-02

    ------------------------------------------------
       NWT REQUIRED            3 OUTER ITERATIONS 
       AND A TOTAL OF          5 INNER ITERATIONS.
    ------------------------------------------------

 NO OUTPUT CONTROL FOR STRESS PERIOD    2   TIME STEP   29
 
 SOLVING FOR HEAD 
                                                   Max.-Head-Change                         Max.-Flux-Residual
  Residual-Control   Outer-Iter.   Inner-Iter.     Column Row Layer    Maximum-Head-Change  Column Row Layer    Maximum-Flux-Residual          L2-NORM 
          0                 1           2             2    2     1       0.3143052883E-02       2    2    1         0.1641379707E+00      0.3117827920E+00
          0                 2           2             2    2     1      -0.3057337187E-03       2    2    1        -0.1641382238E-01      0.3112272304E-01
          0                 3           1             2    2     1       0.2081932953E-04       2    2    1         0.1148967840E-02      0.2173740422E-02

    ------------------------------------------------
       NWT REQUIRED            3 OUTER ITERATIONS 
       AND A TOTAL OF          5 INNER ITERATIONS.
    ------------------------------------------------

 NO OUTPUT CONTROL FOR STRESS PERIOD    2   TIME STEP   30



 STREAM LISTING     PERIOD      2   STEP       30

 LAYER ROW COL. STREAM  RCH.  FLOW INTO     FLOW TO   FLOW OUT OF   OVRLND.     DIRECT     STREAM       STREAM     STREAM     STREAM   STREAMBED  STREAMBED
                SEG.NO.  NO.  STRM. RCH.    AQUIFER    STRM. RCH.    RUNOFF     PRECIP       ET          HEAD       DEPTH      WIDTH   CONDCTNC.   GRADIENT

   1    1    1     1     1    2.2000E+01  2.3088E-01   2.1769E+01  0.000E+00  0.000E+00  0.000E+00  1.09418E+03  1.132E+00  1.242E+01  5.588E-02  1.377E+00
   1    2    2     1     2    2.1769E+01  3.5689E-01   2.1412E+01  0.000E+00  0.000E+00  0.000E+00  1.08919E+03  1.127E+00  1.235E+01  8.648E-02  1.376E+00
   1    3    3     1     3    2.1412E+01  3.0372E-01   2.1109E+01  0.000E+00  0.000E+00  0.000E+00  1.08354E+03  1.121E+00  1.228E+01  7.369E-02  1.374E+00
   1    3    4     1     4    2.1109E+01  2.7914E-01   2.0829E+01  0.000E+00  0.000E+00  0.000E+00  1.07852E+03  1.117E+00  1.222E+01  6.781E-02  1.372E+00
   1    4    5     2     1    1.8829E+01  3.1306E-01   1.8516E+01  0.000E+00  0.000E+00  0.000E+00  1.07295E+03  1.014E+00  1.200E+01  7.800E-02  1.338E+00
   1    5    6     2     2    1.8516E+01  2.4027E-01   1.8276E+01  0.000E+00  0.000E+00  0.000E+00  1.06751E+03  1.005E+00  1.200E+01  6.000E-02  1.335E+00
   1    6    6     2     3    1.8276E+01  2.3980E-01   1.8036E+01  0.000E+00  0.000E+00  0.000E+00  1.06279E+03  9.967E-01  1.200E+01  6.000E-02  1.332E+00
   1    7    6     2     4    1.8036E+01  2.3933E-01   1.7797E+01  0.000E+00  0.000E+00  0.000E+00  1.05806E+03  9.888E-01  1.200E+01  6.000E-02  1.330E+00
   1    8    6     2     5    1.7797E+01  2.3885E-01   1.7558E+01  0.000E+00  0.000E+00  0.000E+00  1.05334E+03  9.808E-01  1.200E+01  6.000E-02  1.327E+00
   1    3    5     3     1    2.0000E+00  2.8252E-01   1.7175E+00  0.000E+00  0.000E+00  0.000E+00  1.07555E+03  1.909E+00  9.636E+00  7.227E-02  1.955E+00
   1    3    6     3     2    1.7175E+00  2.4905E-01   1.4684E+00  0.000E+00  0.000E+00  0.000E+00  1.07264E+03  1.727E+00  8.909E+00  6.682E-02  1.864E+00
   1    3    7     3     3    1.4684E+00  1.9718E-01   1.2712E+00  0.000E+00  0.000E+00  0.000E+00  1.06987E+03  1.555E+00  8.218E+00  5.547E-02  1.777E+00
   1    4    8     3     4    1.2712E+00  2.2567E-01   1.0456E+00  0.000E+00  0.000E+00  0.000E+00  1.06682E+03  1.364E+00  7.455E+00  6.709E-02  1.682E+00
   1    5    8     3     5    1.0456E+00  1.5790E-01   8.8768E-01  0.000E+00  0.000E+00  0.000E+00  1.06362E+03  1.164E+00  6.655E+00  4.991E-02  1.582E+00
   1    6    8     3     6    8.8768E-01  5.5980E-02   8.3170E-01  0.000E+00  0.000E+00  0.000E+00  1.06158E+03  1.036E+00  6.145E+00  1.844E-02  1.518E+00
   1    5   10     4     1    1.0000E+01  9.0919E-02   9.9091E+00  0.000E+00  0.000E+00  0.000E+00  1.07836E+03  6.368E-01  1.000E+01  2.500E-02  1.212E+00
   1    5    9     4     2    9.9091E+00  1.8158E-01   9.7275E+00  0.000E+00  0.000E+00  0.000E+00  1.07154E+03  6.315E-01  1.000E+01  5.000E-02  1.211E+00
   1    6    8     4     3    9.7275E+00  1.2689E-01   9.6006E+00  0.000E+00  0.000E+00  0.000E+00  1.06381E+03  6.256E-01  1.000E+01  3.500E-02  1.209E+00
   1    6    8     5     1    1.0432E+01  2.2686E-01   1.0205E+01  0.000E+00  0.000E+00  0.000E+00  1.05868E+03  6.790E-01  1.542E+01  6.166E-02  1.226E+00
   1    7    7     5     2    1.0205E+01  2.7894E-01   9.9265E+00  0.000E+00  0.000E+00  0.000E+00  1.05417E+03  6.732E-01  1.519E+01  7.594E-02  1.224E+00
   1    8    7     5     3    9.9265E+00  1.9221E-01   9.7343E+00  0.000E+00  0.000E+00  0.000E+00  1.04992E+03  6.676E-01  1.497E+01  5.241E-02  1.223E+00
   1    8    6     5     4    9.7343E+00  1.3577E-01   9.5985E+00  0.000E+00  0.000E+00  0.000E+00  1.04691E+03  6.637E-01  1.482E+01  3.706E-02  1.221E+00
   1    9    6     6     1    2.7157E+01  2.5677E-01   2.6900E+01  0.000E+00  0.000E+00  0.000E+00  1.04401E+03  1.280E+00  1.200E+01  6.000E-02  1.427E+00
   1   10    7     6     2    2.6900E+01  2.5634E-01   2.6644E+01  0.000E+00  0.000E+00  0.000E+00  1.03945E+03  1.272E+00  1.200E+01  6.000E-02  1.424E+00
   1   11    7     6     3    2.6644E+01  2.5590E-01   2.6388E+01  0.000E+00  0.000E+00  0.000E+00  1.03490E+03  1.265E+00  1.200E+01  6.000E-02  1.422E+00
   1   12    7     6     4    2.6388E+01  2.5546E-01   2.6132E+01  0.000E+00  0.000E+00  0.000E+00  1.03035E+03  1.258E+00  1.200E+01  6.000E-02  1.419E+00
   1   13    7     6     5    2.6132E+01  1.0939E-03   2.6131E+01  0.000E+00  0.000E+00  0.000E+00  1.02716E+03  1.254E+00  1.200E+01  2.400E-02  1.519E-02
   1   14    9     7     1    1.5000E+02  1.3306E+00   1.4867E+02  0.000E+00  0.000E+00  0.000E+00  1.03987E+03  2.288E+00  5.529E+01  5.593E-01  7.930E-01
   1   13    8     7     2    1.4867E+02  1.8228E+00   1.4685E+02  0.000E+00  0.000E+00  0.000E+00  1.03478E+03  2.279E+00  5.526E+01  6.148E-01  9.883E-01
   1   13    7     7     3    1.4685E+02  1.4367E+00   1.4541E+02  0.000E+00  0.000E+00  0.000E+00  1.02969E+03  2.271E+00  5.522E+01  5.585E-01  8.575E-01
   1   13    6     8     1    1.7154E+02  8.8336E-01   1.7066E+02  0.000E+00  0.000E+00  0.000E+00  1.02483E+03  2.959E+00  4.291E+01  4.373E-01  6.734E-01
   1   13    5     8     2    1.7066E+02  1.2909E-01   1.7053E+02  0.000E+00  0.000E+00  0.000E+00  1.01858E+03  2.956E+00  4.286E+01  4.368E-01  9.852E-02
   1   13    4     8     3    1.7053E+02 -2.6157E+00   1.7314E+02  0.000E+00  0.000E+00  0.000E+00  1.01234E+03  2.964E+00  4.298E+01  4.380E+00 -1.991E-01
   1   13    3     8     4    1.7314E+02 -3.7119E+00   1.7686E+02  0.000E+00  0.000E+00  0.000E+00  1.00611E+03  2.984E+00  4.327E+01  4.410E+00 -2.806E-01
   1   13    2     8     5    1.7686E+02 -2.5514E+00   1.7941E+02  0.000E+00  0.000E+00  0.000E+00  9.99879E+02  3.004E+00  4.356E+01  4.439E+00 -1.916E-01
   1   13    1     8     6    1.7941E+02 -1.9322E+00   1.8134E+02  0.000E+00  0.000E+00  0.000E+00  9.94893E+02  3.019E+00  4.377E+01  2.676E+00 -2.407E-01





UNSATURATED ZONE PACKAGE VOLUMETRIC BUDGET FOR  TIME STEP    30 STRESS PERIOD    2
  ------------------------------------------------------------------------------



     CUMULATIVE VOLUMES      L**3       RATES FOR THIS TIME STEP      L**3/T
     ------------------                 ------------------------

           IN:                                      IN:
           ---                                      ---
        INFILTRATION =    11664948.5581          INFILTRATION =           4.4075

          OUT:                                     OUT:
          ----                                     ----
              UZF ET =     1906749.7351                UZF ET =           0.7250
        UZF RECHARGE =       73224.0000          UZF RECHARGE =       0.0000E+00

            IN - OUT =     9684974.8230              IN - OUT =           3.6825

          STORAGE:                                 STORAGE:
          --------                                 --------
      STORAGE CHANGE =     9684974.7649        STORAGE CHANGE =           3.6825

 PERCENT DISCREPANCY IS DIFFERENCE BETWEEN IN-OUT MINUS CHANGE IN STORAGE
 DIVIDED BY THE AVERAGE OF IN AND OUT TIMES 100

 PERCENT DISCREPANCY =           0.00     PERCENT DISCREPANCY =           0.00






1
  VOLUMETRIC BUDGET FOR AGRICULTURAL FIELDS AT TIME STEP   30, STRESS PERIOD   2
  ------------------------------------------------------------------------------

     CUMULATIVE VOLUMES      L**3       RATES FOR THIS TIME STEP      L**3/T
     ------------------                 ------------------------

           IN:                                      IN:
           ---                                      ---
               AG WELLS  =           0.0000                 AG WELLS  =           0.0000
      DIVERSION SEGMENTS =           0.0000        DIVERSION SEGMENTS =           0.0000
           GW IRRIGATION =           0.0000             GW IRRIGATION =           0.0000
           SW IRRIGATION =           0.0000             SW IRRIGATION =           0.0000
        SYSTEM LOSSES GW =           0.0000          SYSTEM LOSSES GW =           0.0000
        SYSTEM LOSSES SW =           0.0000          SYSTEM LOSSES SW =           0.0000

                TOTAL IN =           0.0000                  TOTAL IN =           0.0000

          OUT:                                     OUT:
          ----                                     ----
               AG WELLS  =           0.0000                 AG WELLS  =           0.0000
      DIVERSION SEGMENTS =           0.0000        DIVERSION SEGMENTS =           0.0000
           GW IRRIGATION =           0.0000             GW IRRIGATION =           0.0000
           SW IRRIGATION =           0.0000             SW IRRIGATION =           0.0000
        SYSTEM LOSSES GW =           0.0000          SYSTEM LOSSES GW =           0.0000
        SYSTEM LOSSES SW =           0.0000          SYSTEM LOSSES SW =           0.0000

               TOTAL OUT =           0.0000                 TOTAL OUT =           0.0000

                IN - OUT =           0.0000                  IN - OUT =           0.0000

     PERCENT DISCREPANCY =           0.00         PERCENT DISCREPANCY =           0.00



1
  VOLUMETRIC BUDGET FOR ENTIRE MODEL AT END OF TIME STEP   30, STRESS PERIOD   2
  ------------------------------------------------------------------------------

     CUMULATIVE VOLUMES      L**3       RATES FOR THIS TIME STEP      L**3/T
     ------------------                 ------------------------

           IN:                                      IN:
           ---                                      ---
             STORAGE     =     1687679.8750               STORAGE     =           0.5792
       CONSTANT HEAD     =           0.0000         CONSTANT HEAD     =           0.0000
     HEAD DEP BOUNDS     =      775205.3125       HEAD DEP BOUNDS     =           0.2854
      STREAM LEAKAGE     =    31116964.0000        STREAM LEAKAGE     =          11.4714
        UZF RECHARGE     =       73223.9531          UZF RECHARGE     =           0.0000
               GW ET     =           0.0000                 GW ET     =           0.0000
     SURFACE LEAKAGE     =           0.0000       SURFACE LEAKAGE     =           0.0000
           AG WELLS      =           0.0000             AG WELLS      =           0.0000

                TOTAL IN =    33653072.0000                  TOTAL IN =          12.3360

          OUT:                                     OUT:
          ----                                     ----
             STORAGE     =     4220742.0000               STORAGE     =           1.2356
       CONSTANT HEAD     =           0.0000         CONSTANT HEAD     =           0.0000
     HEAD DEP BOUNDS     =      783850.8125       HEAD DEP BOUNDS     =           0.2894
      STREAM LEAKAGE     =    28649202.0000        STREAM LEAKAGE     =          10.8112
        UZF RECHARGE     =           0.0000          UZF RECHARGE     =           0.0000
               GW ET     =           0.0000                 GW ET     =           0.0000
     SURFACE LEAKAGE     =           0.0000       SURFACE LEAKAGE     =           0.0000
           AG WELLS      =           0.0000             AG WELLS      =           0.0000

               TOTAL OUT =    33653796.0000                 TOTAL OUT =          12.3362

                IN - OUT =        -724.0000                  IN - OUT =      -1.8311E-04

     PERCENT DISCREPANCY =          -0.00         PERCENT DISCREPANCY =          -0.00






         TIME SUMMARY AT END OF TIME STEP   30 IN STRESS PERIOD    2
                    SECONDS     MINUTES      HOURS       DAYS        YEARS
                    -----------------------------------------------------------
   TIME STEP LENGTH  87667.      1461.1      24.352      1.0147     2.77799E-03
 STRESS PERIOD TIME 2.63000E+06  43833.      730.56      30.440     8.33397E-02
         TOTAL TIME 2.71640E+06  45273.      754.56      31.440     8.60775E-02
1
1
                            STRESS PERIOD NO.    3, LENGTH =   2630000.    
                            -----------------------------------------------

                              NUMBER OF TIME STEPS =    30

                               MULTIPLIER FOR DELT =     1.000

                            INITIAL TIME STEP SIZE =   87666.66    

 REUSING NON-PARAMETER GHB CELLS FROM LAST STRESS PERIOD

      2 GHB CELLS

 REUSING STREAM SEGMENT DATA FROM LAST STRESS PERIOD



            AREAL INFILTRATION RATE
 READING ON UNIT   19 WITH FORMAT: (10F4.0)            

            1           2           3           4           5           6           7           8           9          10
 ........................................................................................................................
   1   1.2000E-09   0.000       0.000       0.000       0.000       0.000       0.000       0.000       0.000       0.000    
   2   2.1000E-09  2.0000E-09  8.0000E-10  8.5000E-09   0.000       0.000       0.000       0.000       0.000       0.000    
   3   5.0000E-10  1.1000E-09  8.8000E-09  5.5000E-09   0.000       0.000       0.000       0.000       0.000       0.000    
   4   8.5000E-09  1.1000E-09  1.1000E-09  1.1000E-09  2.0000E-09   0.000       0.000       0.000       0.000       0.000    
   5   8.5000E-09  1.1000E-09  1.1000E-09  1.1000E-09  1.1000E-09   0.000       0.000       0.000       0.000       0.000    
   6   8.5000E-09  5.2000E-09  2.1000E-09  1.1000E-09  1.5000E-09   0.000       0.000       0.000       0.000       0.000    
   7   8.5000E-09  5.2000E-09  2.1000E-09  1.2000E-09  2.0000E-09   0.000       0.000       0.000       0.000       0.000    
   8   5.0000E-10  5.2000E-09  2.1000E-09  1.2000E-09  5.0000E-09   0.000       0.000       0.000       0.000       0.000    
   9   5.0000E-10  5.2000E-09  2.1000E-09  1.2000E-09  5.0000E-09   0.000       0.000       0.000       0.000       0.000    
  10   5.0000E-10  5.2000E-09  2.1000E-09  1.2000E-09  5.8000E-09   0.000       0.000       0.000       0.000       0.000    
  11   1.0000E-10  1.1000E-09  1.1000E-09  1.2000E-09  5.0000E-09   0.000       0.000       0.000       0.000       0.000    
  12   1.1000E-09  1.1000E-09  1.1000E-09  1.1000E-09  2.0000E-09   0.000       0.000       0.000       0.000       0.000    
  13   1.1000E-09  2.2000E-09  2.2000E-09  2.1000E-09  1.0000E-09   0.000       0.000       0.000       0.000       0.000    
  14   2.0000E-10  5.5000E-09  5.5000E-09  5.2000E-09  1.0000E-09   0.000       0.000       0.000       0.000       0.000    
  15    0.000      8.8000E-09  8.8000E-09   0.000       0.000       0.000       0.000       0.000       0.000       0.000    

                  ET RATE =  5.000000E-10

 USING ET EXTINCTION DEPTH FROM PREVIOUS STRESS PERIOD. CURRENT PERIOD IS:       3

 USING EXTINCTION WATER CONTENT FROM PREVIOUS STRESS PERIOD. CURRENT PERIOD IS:       3

 USING AIR ENTRY PRESSURE FROM PREVIOUS STRESS PERIOD. CURRENT PERIOD IS:       3

 USING ROOT PRESSURE HEAD FROM PREVIOUS STRESS PERIOD. CURRENT PERIOD IS:       3

 USING ROOT ACTIVITY FROM PREVIOUS STRESS PERIOD. CURRENT PERIOD IS:       3

 PROCESSING AG STRESS PERIOD DATA

 READING AG STRESS PERIOD DATA

 READING IRRIGATION WELL

 END PROCESSING AG STRESS PERIOD DATA OPTIONS
 
 SOLVING FOR HEAD 
                                                   Max.-Head-Change                         Max.-Flux-Residual
  Residual-Control   Outer-Iter.   Inner-Iter.     Column Row Layer    Maximum-Head-Change  Column Row Layer    Maximum-Flux-Residual          L2-NORM 
          0                 1           2             2    2     1       0.4445665625E-02       2   13    1         0.2434077641E+00      0.6122455516E+00
          0                 2           2             2    2     1      -0.4324428304E-03       4   13    1        -0.2398176572E-01      0.6028152508E-01
          0                 3           1             2    2     1       0.2944774546E-04       4   13    1         0.1653052382E-02      0.4132068781E-02

    ------------------------------------------------
       NWT REQUIRED            3 OUTER ITERATIONS 
       AND A TOTAL OF          5 INNER ITERATIONS.
    ------------------------------------------------

 NO OUTPUT CONTROL FOR STRESS PERIOD    3   TIME STEP    1
 
 SOLVING FOR HEAD 
                                                   Max.-Head-Change                         Max.-Flux-Residual
  Residual-Control   Outer-Iter.   Inner-Iter.     Column Row Layer    Maximum-Head-Change  Column Row Layer    Maximum-Flux-Residual          L2-NORM 
          0                 1           2             2   13     1       0.7704231706E-02       4   13    1         0.4384291293E+00      0.9459695630E+00
          0                 2           2             4   13     1      -0.7354830950E-03       4   13    1        -0.4338124263E-01      0.9263001763E-01
          0                 3           1             4   13     1       0.4933806270E-04       4   13    1         0.2991963906E-02      0.6301771552E-02

    ------------------------------------------------
       NWT REQUIRED            3 OUTER ITERATIONS 
       AND A TOTAL OF          5 INNER ITERATIONS.
    ------------------------------------------------

 NO OUTPUT CONTROL FOR STRESS PERIOD    3   TIME STEP    2
 
 SOLVING FOR HEAD 
                                                   Max.-Head-Change                         Max.-Flux-Residual
  Residual-Control   Outer-Iter.   Inner-Iter.     Column Row Layer    Maximum-Head-Change  Column Row Layer    Maximum-Flux-Residual          L2-NORM 
          0                 1           2             2   13     1       0.7121138986E-02       2   13    1         0.4014748242E+00      0.8938693837E+00
          0                 2           2             4   13     1      -0.6668013415E-03       4   13    1        -0.3930257348E-01      0.8761637931E-01
          0                 3           1             4   13     1       0.4472661086E-04       4   13    1         0.2710409861E-02      0.5968344460E-02

    ------------------------------------------------
       NWT REQUIRED            3 OUTER ITERATIONS 
       AND A TOTAL OF          5 INNER ITERATIONS.
    ------------------------------------------------

 NO OUTPUT CONTROL FOR STRESS PERIOD    3   TIME STEP    3
 
 SOLVING FOR HEAD 
                                                   Max.-Head-Change                         Max.-Flux-Residual
  Residual-Control   Outer-Iter.   Inner-Iter.     Column Row Layer    Maximum-Head-Change  Column Row Layer    Maximum-Flux-Residual          L2-NORM 
          0                 1           2             2   13     1       0.6582769499E-02       2   13    1         0.3710761212E+00      0.8472026121E+00
          0                 2           2             2   13     1      -0.6119643673E-03       4   13    1        -0.3563223672E-01      0.8313006312E-01
          0                 3           1             4   13     1       0.4057126948E-04       4   13    1         0.2456764353E-02      0.5671445212E-02

    ------------------------------------------------
       NWT REQUIRED            3 OUTER ITERATIONS 
       AND A TOTAL OF          5 INNER ITERATIONS.
    ------------------------------------------------

 NO OUTPUT CONTROL FOR STRESS PERIOD    3   TIME STEP    4
 
 SOLVING FOR HEAD 
                                                   Max.-Head-Change                         Max.-Flux-Residual
  Residual-Control   Outer-Iter.   Inner-Iter.     Column Row Layer    Maximum-Head-Change  Column Row Layer    Maximum-Flux-Residual          L2-NORM 
          0                 1           2             2   13     1       0.6085656272E-02       2   13    1         0.3430086015E+00      0.8054120089E+00
          0                 2           2             2   13     1      -0.5659605990E-03       2   13    1        -0.3278996529E-01      0.7911474678E-01
          0                 3           1             4   13     1       0.3683525171E-04       4   13    1         0.2228812275E-02      0.5405696265E-02

    ------------------------------------------------
       NWT REQUIRED            3 OUTER ITERATIONS 
       AND A TOTAL OF          5 INNER ITERATIONS.
    ------------------------------------------------

 NO OUTPUT CONTROL FOR STRESS PERIOD    3   TIME STEP    5
 
 SOLVING FOR HEAD 
                                                   Max.-Head-Change                         Max.-Flux-Residual
  Residual-Control   Outer-Iter.   Inner-Iter.     Column Row Layer    Maximum-Head-Change  Column Row Layer    Maximum-Flux-Residual          L2-NORM 
          0                 1           2             2   13     1       0.5626654856E-02       2   13    1         0.3170945818E+00      0.7680236351E+00
          0                 2           2             2   13     1      -0.5234355978E-03       2   13    1        -0.3032188973E-01      0.7552415249E-01
          0                 3           1             2    2     1       0.3527220249E-04       4   13    1         0.2024546544E-02      0.5120042062E-02

    ------------------------------------------------
       NWT REQUIRED            3 OUTER ITERATIONS 
       AND A TOTAL OF          5 INNER ITERATIONS.
    ------------------------------------------------

 NO OUTPUT CONTROL FOR STRESS PERIOD    3   TIME STEP    6
 
 SOLVING FOR HEAD 
                                                   Max.-Head-Change                         Max.-Flux-Residual
  Residual-Control   Outer-Iter.   Inner-Iter.     Column Row Layer    Maximum-Head-Change  Column Row Layer    Maximum-Flux-Residual          L2-NORM 
          0                 1           2             2    2     1       0.5289564174E-02       2   13    1         0.2931871040E+00      0.7345836157E+00
          0                 2           2             2    2     1      -0.5145314648E-03       2   13    1        -0.2804532133E-01      0.7231669992E-01
          0                 3           1             2    2     1       0.3503767419E-04       2    2    1         0.1933947847E-02      0.4956536005E-02

    ------------------------------------------------
       NWT REQUIRED            3 OUTER ITERATIONS 
       AND A TOTAL OF          5 INNER ITERATIONS.
    ------------------------------------------------

 NO OUTPUT CONTROL FOR STRESS PERIOD    3   TIME STEP    7
 
 SOLVING FOR HEAD 
                                                   Max.-Head-Change                         Max.-Flux-Residual
  Residual-Control   Outer-Iter.   Inner-Iter.     Column Row Layer    Maximum-Head-Change  Column Row Layer    Maximum-Flux-Residual          L2-NORM 
          0                 1           2             2    2     1       0.5254573274E-02       2    2    1         0.2744371868E+00      0.7046629729E+00
          0                 2           2             2    2     1      -0.5111277838E-03       2    2    1        -0.2744379097E-01      0.6944669411E-01
          0                 3           1             2    2     1       0.3480589674E-04       2    2    1         0.1921065518E-02      0.4767081768E-02

    ------------------------------------------------
       NWT REQUIRED            3 OUTER ITERATIONS 
       AND A TOTAL OF          5 INNER ITERATIONS.
    ------------------------------------------------

 NO OUTPUT CONTROL FOR STRESS PERIOD    3   TIME STEP    8
 
 SOLVING FOR HEAD 
                                                   Max.-Head-Change                         Max.-Flux-Residual
  Residual-Control   Outer-Iter.   Inner-Iter.     Column Row Layer    Maximum-Head-Change  Column Row Layer    Maximum-Flux-Residual          L2-NORM 
          0                 1           2             2    2     1       0.5220077323E-02       2    2    1         0.2726229482E+00      0.6779071135E+00
          0                 2           2             2    2     1      -0.5077722486E-03       2    2    1        -0.2726236580E-01      0.6688226763E-01
          0                 3           1             2    2     1       0.3457739746E-04       2    2    1         0.1908365766E-02      0.4597320584E-02

    ------------------------------------------------
       NWT REQUIRED            3 OUTER ITERATIONS 
       AND A TOTAL OF          5 INNER ITERATIONS.
    ------------------------------------------------

 NO OUTPUT CONTROL FOR STRESS PERIOD    3   TIME STEP    9
 
 SOLVING FOR HEAD 
                                                   Max.-Head-Change                         Max.-Flux-Residual
  Residual-Control   Outer-Iter.   Inner-Iter.     Column Row Layer    Maximum-Head-Change  Column Row Layer    Maximum-Flux-Residual          L2-NORM 
          0                 1           2             2    2     1       0.5186068290E-02       2    2    1         0.2708343723E+00      0.6539789964E+00
          0                 2           2             2    2     1      -0.5044640773E-03       2    2    1        -0.2708350691E-01      0.6459072380E-01
          0                 3           1             2    2     1       0.3435212332E-04       2    2    1         0.1895845640E-02      0.4446468863E-02

    ------------------------------------------------
       NWT REQUIRED            3 OUTER ITERATIONS 
       AND A TOTAL OF          5 INNER ITERATIONS.
    ------------------------------------------------

 NO OUTPUT CONTROL FOR STRESS PERIOD    3   TIME STEP   10
 
 SOLVING FOR HEAD 
                                                   Max.-Head-Change                         Max.-Flux-Residual
  Residual-Control   Outer-Iter.   Inner-Iter.     Column Row Layer    Maximum-Head-Change  Column Row Layer    Maximum-Flux-Residual          L2-NORM 
          0                 1           2             2    2     1       0.5152539088E-02       2    2    1         0.2690710425E+00      0.6325588855E+00
          0                 2           2             2    2     1      -0.5012025806E-03       2    2    1        -0.2690717265E-01      0.6253781718E-01
          0                 3           1             2    2     1       0.3413002723E-04       2    2    1         0.1883502243E-02      0.4311014603E-02

    ------------------------------------------------
       NWT REQUIRED            3 OUTER ITERATIONS 
       AND A TOTAL OF          5 INNER ITERATIONS.
    ------------------------------------------------

 NO OUTPUT CONTROL FOR STRESS PERIOD    3   TIME STEP   11
 
 SOLVING FOR HEAD 
                                                   Max.-Head-Change                         Max.-Flux-Residual
  Residual-Control   Outer-Iter.   Inner-Iter.     Column Row Layer    Maximum-Head-Change  Column Row Layer    Maximum-Flux-Residual          L2-NORM 
          0                 1           2             2    2     1       0.5119394800E-02       2    2    1         0.2673280360E+00      0.6133709395E+00
          0                 2           2             2    2     1      -0.4979785268E-03       2    2    1        -0.2673287077E-01      0.6069958350E-01
          0                 3           1             2    2     1       0.3391048176E-04       2    2    1         0.1871301116E-02      0.4190142762E-02

    ------------------------------------------------
       NWT REQUIRED            3 OUTER ITERATIONS 
       AND A TOTAL OF          5 INNER ITERATIONS.
    ------------------------------------------------

 NO OUTPUT CONTROL FOR STRESS PERIOD    3   TIME STEP   12
 
 SOLVING FOR HEAD 
                                                   Max.-Head-Change                         Max.-Flux-Residual
  Residual-Control   Outer-Iter.   Inner-Iter.     Column Row Layer    Maximum-Head-Change  Column Row Layer    Maximum-Flux-Residual          L2-NORM 
          0                 1           2             2    2     1       0.5086715702E-02       2    2    1         0.2656095421E+00      0.5961687515E+00
          0                 2           2             2    2     1      -0.4947997234E-03       2    2    1        -0.2656102017E-01      0.5905071914E-01
          0                 3           1             2    2     1       0.3369401707E-04       2    2    1         0.1859271593E-02      0.4081185293E-02

    ------------------------------------------------
       NWT REQUIRED            3 OUTER ITERATIONS 
       AND A TOTAL OF          5 INNER ITERATIONS.
    ------------------------------------------------

 NO OUTPUT CONTROL FOR STRESS PERIOD    3   TIME STEP   13
 
 SOLVING FOR HEAD 
                                                   Max.-Head-Change                         Max.-Flux-Residual
  Residual-Control   Outer-Iter.   Inner-Iter.     Column Row Layer    Maximum-Head-Change  Column Row Layer    Maximum-Flux-Residual          L2-NORM 
          0                 1           2             2    2     1       0.5054494282E-02       2    2    1         0.2639151679E+00      0.5807224799E+00
          0                 2           2             2    2     1      -0.4916654401E-03       2    2    1        -0.2639158157E-01      0.5757181559E-01
          0                 3           1             2    2     1       0.3348058441E-04       2    2    1         0.1847410904E-02      0.3991515040E-02

    ------------------------------------------------
       NWT REQUIRED            3 OUTER ITERATIONS 
       AND A TOTAL OF          5 INNER ITERATIONS.
    ------------------------------------------------

 NO OUTPUT CONTROL FOR STRESS PERIOD    3   TIME STEP   14
 
 SOLVING FOR HEAD 
                                                   Max.-Head-Change                         Max.-Flux-Residual
  Residual-Control   Outer-Iter.   Inner-Iter.     Column Row Layer    Maximum-Head-Change  Column Row Layer    Maximum-Flux-Residual          L2-NORM 
          0                 1           2             2    2     1       0.5022723561E-02       2    2    1         0.2622445237E+00      0.5668317918E+00
          0                 2           2             2    2     1      -0.4885749979E-03       2    2    1        -0.2622451600E-01      0.5628048059E-01
          0                 3           1             2    2     1       0.3327013643E-04       2    2    1         0.1835716309E-02      0.3898719911E-02

    ------------------------------------------------
       NWT REQUIRED            3 OUTER ITERATIONS 
       AND A TOTAL OF          5 INNER ITERATIONS.
    ------------------------------------------------

 NO OUTPUT CONTROL FOR STRESS PERIOD    3   TIME STEP   15
 
 SOLVING FOR HEAD 
                                                   Max.-Head-Change                         Max.-Flux-Residual
  Residual-Control   Outer-Iter.   Inner-Iter.     Column Row Layer    Maximum-Head-Change  Column Row Layer    Maximum-Flux-Residual          L2-NORM 
          0                 1           2             2    2     1       0.4991309127E-02       2    2    1         0.2605926917E+00      0.5542886086E+00
          0                 2           2             2    2     1      -0.4855192130E-03       2    2    1        -0.2605933168E-01      0.5503626893E-01
          0                 3           1             2    2     1       0.3306204950E-04       2    2    1         0.1824153417E-02      0.3816400309E-02

    ------------------------------------------------
       NWT REQUIRED            3 OUTER ITERATIONS 
       AND A TOTAL OF          5 INNER ITERATIONS.
    ------------------------------------------------

 NO OUTPUT CONTROL FOR STRESS PERIOD    3   TIME STEP   16
 
 SOLVING FOR HEAD 
                                                   Max.-Head-Change                         Max.-Flux-Residual
  Residual-Control   Outer-Iter.   Inner-Iter.     Column Row Layer    Maximum-Head-Change  Column Row Layer    Maximum-Flux-Residual          L2-NORM 
          0                 1           2             2    2     1       0.4960331728E-02       2    2    1         0.2589638887E+00      0.5429527659E+00
          0                 2           2             2    2     1      -0.4825059399E-03       2    2    1        -0.2589645027E-01      0.5394863124E-01
          0                 3           1             2    2     1       0.3285685685E-04       2    2    1         0.1812751723E-02      0.3745429327E-02

    ------------------------------------------------
       NWT REQUIRED            3 OUTER ITERATIONS 
       AND A TOTAL OF          5 INNER ITERATIONS.
    ------------------------------------------------

 NO OUTPUT CONTROL FOR STRESS PERIOD    3   TIME STEP   17
 
 SOLVING FOR HEAD 
                                                   Max.-Head-Change                         Max.-Flux-Residual
  Residual-Control   Outer-Iter.   Inner-Iter.     Column Row Layer    Maximum-Head-Change  Column Row Layer    Maximum-Flux-Residual          L2-NORM 
          0                 1           2             2    2     1       0.4929772597E-02       2    2    1         0.2573571112E+00      0.5326915582E+00
          0                 2           2             2    2     1      -0.4795333541E-03       2    2    1        -0.2573577146E-01      0.5296134406E-01
          0                 3           1             2    2     1       0.3265443517E-04       2    2    1         0.1801504222E-02      0.3678992814E-02

    ------------------------------------------------
       NWT REQUIRED            3 OUTER ITERATIONS 
       AND A TOTAL OF          5 INNER ITERATIONS.
    ------------------------------------------------

 NO OUTPUT CONTROL FOR STRESS PERIOD    3   TIME STEP   18
 
 SOLVING FOR HEAD 
                                                   Max.-Head-Change                         Max.-Flux-Residual
  Residual-Control   Outer-Iter.   Inner-Iter.     Column Row Layer    Maximum-Head-Change  Column Row Layer    Maximum-Flux-Residual          L2-NORM 
          0                 1           2             2    2     1       0.4899649573E-02       2    2    1         0.2557732890E+00      0.5233862415E+00
          0                 2           2             2    2     1      -0.4766031890E-03       2    2    1        -0.2557738819E-01      0.5206599007E-01
          0                 3           1             2    2     1       0.3245490185E-04       2    2    1         0.1790417385E-02      0.3619381662E-02

    ------------------------------------------------
       NWT REQUIRED            3 OUTER ITERATIONS 
       AND A TOTAL OF          5 INNER ITERATIONS.
    ------------------------------------------------

 NO OUTPUT CONTROL FOR STRESS PERIOD    3   TIME STEP   19
 
 SOLVING FOR HEAD 
                                                   Max.-Head-Change                         Max.-Flux-Residual
  Residual-Control   Outer-Iter.   Inner-Iter.     Column Row Layer    Maximum-Head-Change  Column Row Layer    Maximum-Flux-Residual          L2-NORM 
          0                 1           2             2    2     1       0.4869944017E-02       2    2    1         0.2542114443E+00      0.5149246583E+00
          0                 2           2             2    2     1      -0.4737136332E-03       2    2    1        -0.2542120270E-01      0.5125130704E-01
          0                 3           1             2    2     1       0.3225813382E-04       2    2    1         0.1779484412E-02      0.3565479869E-02

    ------------------------------------------------
       NWT REQUIRED            3 OUTER ITERATIONS 
       AND A TOTAL OF          5 INNER ITERATIONS.
    ------------------------------------------------

 NO OUTPUT CONTROL FOR STRESS PERIOD    3   TIME STEP   20
 
 SOLVING FOR HEAD 
                                                   Max.-Head-Change                         Max.-Flux-Residual
  Residual-Control   Outer-Iter.   Inner-Iter.     Column Row Layer    Maximum-Head-Change  Column Row Layer    Maximum-Flux-Residual          L2-NORM 
          0                 1           2             2    2     1       0.4840561308E-02       2    2    1         0.2526666880E+00      0.5072018350E+00
          0                 2           2             2    2     1      -0.4708554814E-03       2    2    1        -0.2526672606E-01      0.5050649264E-01
          0                 3           1             2    2     1       0.3206350390E-04       2    2    1         0.1768671037E-02      0.3515897272E-02

    ------------------------------------------------
       NWT REQUIRED            3 OUTER ITERATIONS 
       AND A TOTAL OF          5 INNER ITERATIONS.
    ------------------------------------------------

 NO OUTPUT CONTROL FOR STRESS PERIOD    3   TIME STEP   21
 
 SOLVING FOR HEAD 
                                                   Max.-Head-Change                         Max.-Flux-Residual
  Residual-Control   Outer-Iter.   Inner-Iter.     Column Row Layer    Maximum-Head-Change  Column Row Layer    Maximum-Flux-Residual          L2-NORM 
          0                 1           2             2    2     1       0.4811583202E-02       2    2    1         0.2511432275E+00      0.5001333749E+00
          0                 2           2             2    2     1      -0.4680366871E-03       2    2    1        -0.2511437903E-01      0.4982432335E-01
          0                 3           1             2    2     1       0.3187155502E-04       2    2    1         0.1758006757E-02      0.3470842375E-02

    ------------------------------------------------
       NWT REQUIRED            3 OUTER ITERATIONS 
       AND A TOTAL OF          5 INNER ITERATIONS.
    ------------------------------------------------

 NO OUTPUT CONTROL FOR STRESS PERIOD    3   TIME STEP   22
 
 SOLVING FOR HEAD 
                                                   Max.-Head-Change                         Max.-Flux-Residual
  Residual-Control   Outer-Iter.   Inner-Iter.     Column Row Layer    Maximum-Head-Change  Column Row Layer    Maximum-Flux-Residual          L2-NORM 
          0                 1           2             2    2     1       0.4783003971E-02       2    2    1         0.2496407454E+00      0.4936551431E+00
          0                 2           2             2    2     1      -0.4652566927E-03       2    2    1        -0.2496412986E-01      0.4919741190E-01
          0                 3           1             2    2     1       0.3168224788E-04       2    2    1         0.1747489314E-02      0.3428695433E-02

    ------------------------------------------------
       NWT REQUIRED            3 OUTER ITERATIONS 
       AND A TOTAL OF          5 INNER ITERATIONS.
    ------------------------------------------------

 NO OUTPUT CONTROL FOR STRESS PERIOD    3   TIME STEP   23
 
 SOLVING FOR HEAD 
                                                   Max.-Head-Change                         Max.-Flux-Residual
  Residual-Control   Outer-Iter.   Inner-Iter.     Column Row Layer    Maximum-Head-Change  Column Row Layer    Maximum-Flux-Residual          L2-NORM 
          0                 1           2             2    2     1       0.4754729713E-02       2    2    1         0.2481543872E+00      0.4876887784E+00
          0                 2           2             2    2     1      -0.4625063646E-03       2    2    1        -0.2481549312E-01      0.4861976533E-01
          0                 3           1             2    2     1       0.3149496074E-04       2    2    1         0.1737084752E-02      0.3389732006E-02

    ------------------------------------------------
       NWT REQUIRED            3 OUTER ITERATIONS 
       AND A TOTAL OF          5 INNER ITERATIONS.
    ------------------------------------------------

 NO OUTPUT CONTROL FOR STRESS PERIOD    3   TIME STEP   24
 
 SOLVING FOR HEAD 
                                                   Max.-Head-Change                         Max.-Flux-Residual
  Residual-Control   Outer-Iter.   Inner-Iter.     Column Row Layer    Maximum-Head-Change  Column Row Layer    Maximum-Flux-Residual          L2-NORM 
          0                 1           2             2    2     1       0.4726929610E-02       2    2    1         0.2466929560E+00      0.4821860977E+00
          0                 2           2             2    2     1      -0.4598021588E-03       2    2    1        -0.2466934909E-01      0.4808599236E-01
          0                 3           1             2    2     1       0.3131081450E-04       2    2    1         0.1726854664E-02      0.3353865435E-02

    ------------------------------------------------
       NWT REQUIRED            3 OUTER ITERATIONS 
       AND A TOTAL OF          5 INNER ITERATIONS.
    ------------------------------------------------

 NO OUTPUT CONTROL FOR STRESS PERIOD    3   TIME STEP   25
 
 SOLVING FOR HEAD 
                                                   Max.-Head-Change                         Max.-Flux-Residual
  Residual-Control   Outer-Iter.   Inner-Iter.     Column Row Layer    Maximum-Head-Change  Column Row Layer    Maximum-Flux-Residual          L2-NORM 
          0                 1           2             2    2     1       0.4699422055E-02       2    2    1         0.2452469945E+00      0.4770815499E+00
          0                 2           2             2    2     1      -0.4571264102E-03       2    2    1        -0.2452475203E-01      0.4759026415E-01
          0                 3           1             2    2     1       0.3112860637E-04       2    2    1         0.1716732897E-02      0.3320455769E-02

    ------------------------------------------------
       NWT REQUIRED            3 OUTER ITERATIONS 
       AND A TOTAL OF          5 INNER ITERATIONS.
    ------------------------------------------------

 NO OUTPUT CONTROL FOR STRESS PERIOD    3   TIME STEP   26
 
 SOLVING FOR HEAD 
                                                   Max.-Head-Change                         Max.-Flux-Residual
  Residual-Control   Outer-Iter.   Inner-Iter.     Column Row Layer    Maximum-Head-Change  Column Row Layer    Maximum-Flux-Residual          L2-NORM 
          0                 1           2             2    2     1       0.4672289645E-02       2    2    1         0.2438207586E+00      0.4723440155E+00
          0                 2           2             2    2     1      -0.4544871534E-03       2    2    1        -0.2438212758E-01      0.4713134769E-01
          0                 3           1             2    2     1       0.3094888261E-04       2    2    1         0.1706749170E-02      0.3302351072E-02

    ------------------------------------------------
       NWT REQUIRED            3 OUTER ITERATIONS 
       AND A TOTAL OF          5 INNER ITERATIONS.
    ------------------------------------------------

 NO OUTPUT CONTROL FOR STRESS PERIOD    3   TIME STEP   27
 
 SOLVING FOR HEAD 
                                                   Max.-Head-Change                         Max.-Flux-Residual
  Residual-Control   Outer-Iter.   Inner-Iter.     Column Row Layer    Maximum-Head-Change  Column Row Layer    Maximum-Flux-Residual          L2-NORM 
          0                 1           2             2    2     1       0.4645526090E-02       2    2    1         0.2424139737E+00      0.4679311711E+00
          0                 2           2             2    2     1      -0.4518837769E-03       2    2    1        -0.2424144825E-01      0.4670036671E-01
          0                 3           1             2    2     1       0.3077160273E-04       2    2    1         0.1696901643E-02      0.3261803470E-02

    ------------------------------------------------
       NWT REQUIRED            3 OUTER ITERATIONS 
       AND A TOTAL OF          5 INNER ITERATIONS.
    ------------------------------------------------

 NO OUTPUT CONTROL FOR STRESS PERIOD    3   TIME STEP   28
 
 SOLVING FOR HEAD 
                                                   Max.-Head-Change                         Max.-Flux-Residual
  Residual-Control   Outer-Iter.   Inner-Iter.     Column Row Layer    Maximum-Head-Change  Column Row Layer    Maximum-Flux-Residual          L2-NORM 
          0                 1           2             2    2     1       0.4619039107E-02       2    2    1         0.2410217554E+00      0.4638031271E+00
          0                 2           2             2    2     1      -0.4493073030E-03       2    2    1        -0.2410222559E-01      0.4629682470E-01
          0                 3           1             2    2     1       0.3059615400E-04       2    2    1         0.1687156046E-02      0.3233116042E-02

    ------------------------------------------------
       NWT REQUIRED            3 OUTER ITERATIONS 
       AND A TOTAL OF          5 INNER ITERATIONS.
    ------------------------------------------------

 NO OUTPUT CONTROL FOR STRESS PERIOD    3   TIME STEP   29
 
 SOLVING FOR HEAD 
                                                   Max.-Head-Change                         Max.-Flux-Residual
  Residual-Control   Outer-Iter.   Inner-Iter.     Column Row Layer    Maximum-Head-Change  Column Row Layer    Maximum-Flux-Residual          L2-NORM 
          0                 1           2             4   13     1       0.1234231898E-01       4   13    1         0.7107716035E+00      0.1464014708E+01
          0                 2           2             4   13     1      -0.1187267289E-02       4   13    1        -0.7029895415E-01      0.1429600756E+00
          0                 3           1             4   13     1       0.7960471922E-04       4   13    1         0.4846092303E-02      0.9687879922E-02

    ------------------------------------------------
       NWT REQUIRED            3 OUTER ITERATIONS 
       AND A TOTAL OF          5 INNER ITERATIONS.
    ------------------------------------------------

 NO OUTPUT CONTROL FOR STRESS PERIOD    3   TIME STEP   30



 STREAM LISTING     PERIOD      3   STEP       30

 LAYER ROW COL. STREAM  RCH.  FLOW INTO     FLOW TO   FLOW OUT OF   OVRLND.     DIRECT     STREAM       STREAM     STREAM     STREAM   STREAMBED  STREAMBED
                SEG.NO.  NO.  STRM. RCH.    AQUIFER    STRM. RCH.    RUNOFF     PRECIP       ET          HEAD       DEPTH      WIDTH   CONDCTNC.   GRADIENT

   1    1    1     1     1    7.2502E+01  4.1419E-01   7.2087E+01  0.000E+00  0.000E+00  0.000E+00  1.09472E+03  1.670E+00  1.971E+01  8.868E-02  1.557E+00
   1    2    2     1     2    7.2087E+01  6.4160E-01   7.1446E+01  0.000E+00  0.000E+00  0.000E+00  1.08972E+03  1.665E+00  1.965E+01  1.375E-01  1.555E+00
   1    3    3     1     3    7.1446E+01  5.4733E-01   7.0899E+01  0.000E+00  0.000E+00  0.000E+00  1.08408E+03  1.658E+00  1.958E+01  1.175E-01  1.553E+00
   1    3    4     1     4    7.0899E+01  5.0414E-01   7.0394E+01  0.000E+00  0.000E+00  0.000E+00  1.07906E+03  1.652E+00  1.953E+01  1.084E-01  1.551E+00
   1    4    5     2     1    6.8394E+01  4.0598E-01   6.7988E+01  0.000E+00  0.000E+00  0.000E+00  1.07414E+03  2.205E+00  1.200E+01  7.800E-02  1.735E+00
   1    5    6     2     2    6.7988E+01  3.1187E-01   6.7677E+01  0.000E+00  0.000E+00  0.000E+00  1.06871E+03  2.198E+00  1.200E+01  6.000E-02  1.733E+00
   1    6    6     2     3    6.7677E+01  3.1151E-01   6.7365E+01  0.000E+00  0.000E+00  0.000E+00  1.06398E+03  2.192E+00  1.200E+01  6.000E-02  1.731E+00
   1    7    6     2     4    6.7365E+01  3.1115E-01   6.7054E+01  0.000E+00  0.000E+00  0.000E+00  1.05926E+03  2.186E+00  1.200E+01  6.000E-02  1.729E+00
   1    8    6     2     5    6.7054E+01  3.1078E-01   6.6743E+01  0.000E+00  0.000E+00  0.000E+00  1.05454E+03  2.180E+00  1.200E+01  6.000E-02  1.727E+00
   1    3    5     3     1    2.0000E+00  2.8252E-01   1.7175E+00  0.000E+00  0.000E+00  0.000E+00  1.07555E+03  1.909E+00  9.636E+00  7.227E-02  1.955E+00
   1    3    6     3     2    1.7175E+00  2.4905E-01   1.4684E+00  0.000E+00  0.000E+00  0.000E+00  1.07264E+03  1.727E+00  8.909E+00  6.682E-02  1.864E+00
   1    3    7     3     3    1.4684E+00  1.9718E-01   1.2712E+00  0.000E+00  0.000E+00  0.000E+00  1.06987E+03  1.555E+00  8.218E+00  5.547E-02  1.777E+00
   1    4    8     3     4    1.2712E+00  2.2567E-01   1.0456E+00  0.000E+00  0.000E+00  0.000E+00  1.06682E+03  1.364E+00  7.455E+00  6.709E-02  1.682E+00
   1    5    8     3     5    1.0456E+00  1.5790E-01   8.8768E-01  0.000E+00  0.000E+00  0.000E+00  1.06362E+03  1.164E+00  6.655E+00  4.991E-02  1.582E+00
   1    6    8     3     6    8.8768E-01  5.5980E-02   8.3170E-01  0.000E+00  0.000E+00  0.000E+00  1.06158E+03  1.036E+00  6.145E+00  1.844E-02  1.518E+00
   1    5   10     4     1    1.0000E+01  9.0919E-02   9.9091E+00  0.000E+00  0.000E+00  0.000E+00  1.07836E+03  6.368E-01  1.000E+01  2.500E-02  1.212E+00
   1    5    9     4     2    9.9091E+00  1.8158E-01   9.7275E+00  0.000E+00  0.000E+00  0.000E+00  1.07154E+03  6.315E-01  1.000E+01  5.000E-02  1.211E+00
   1    6    8     4     3    9.7275E+00  1.2689E-01   9.6006E+00  0.000E+00  0.000E+00  0.000E+00  1.06381E+03  6.256E-01  1.000E+01  3.500E-02  1.209E+00
   1    6    8     5     1    1.0432E+01  2.2686E-01   1.0205E+01  0.000E+00  0.000E+00  0.000E+00  1.05868E+03  6.790E-01  1.542E+01  6.166E-02  1.226E+00
   1    7    7     5     2    1.0205E+01  2.7894E-01   9.9265E+00  0.000E+00  0.000E+00  0.000E+00  1.05417E+03  6.732E-01  1.519E+01  7.594E-02  1.224E+00
   1    8    7     5     3    9.9265E+00  1.9221E-01   9.7343E+00  0.000E+00  0.000E+00  0.000E+00  1.04992E+03  6.676E-01  1.497E+01  5.241E-02  1.223E+00
   1    8    6     5     4    9.7343E+00  1.3577E-01   9.5985E+00  0.000E+00  0.000E+00  0.000E+00  1.04691E+03  6.637E-01  1.482E+01  3.706E-02  1.221E+00
   1    9    6     6     1    7.6342E+01  3.2296E-01   7.6019E+01  0.000E+00  0.000E+00  0.000E+00  1.04511E+03  2.383E+00  1.200E+01  6.000E-02  1.794E+00
   1   10    7     6     2    7.6019E+01  3.2260E-01   7.5696E+01  0.000E+00  0.000E+00  0.000E+00  1.04056E+03  2.377E+00  1.200E+01  6.000E-02  1.792E+00
   1   11    7     6     3    7.5696E+01  3.2224E-01   7.5374E+01  0.000E+00  0.000E+00  0.000E+00  1.03601E+03  2.371E+00  1.200E+01  6.000E-02  1.790E+00
   1   12    7     6     4    7.5374E+01  3.2187E-01   7.5052E+01  0.000E+00  0.000E+00  0.000E+00  1.03146E+03  2.365E+00  1.200E+01  6.000E-02  1.788E+00
   1   13    7     6     5    7.5052E+01  2.7035E-02   7.5025E+01  0.000E+00  0.000E+00  0.000E+00  1.02827E+03  2.361E+00  1.200E+01  2.400E-02  3.755E-01
   1   14    9     7     1    1.5000E+02  1.3312E+00   1.4867E+02  0.000E+00  0.000E+00  0.000E+00  1.03987E+03  2.288E+00  5.529E+01  5.593E-01  7.933E-01
   1   13    8     7     2    1.4867E+02  1.8193E+00   1.4685E+02  0.000E+00  0.000E+00  0.000E+00  1.03478E+03  2.279E+00  5.526E+01  6.148E-01  9.864E-01
   1   13    7     7     3    1.4685E+02  1.4219E+00   1.4543E+02  0.000E+00  0.000E+00  0.000E+00  1.02969E+03  2.271E+00  5.522E+01  5.585E-01  8.487E-01
   1   13    6     8     1    2.2045E+02  1.0869E+00   2.1937E+02  0.000E+00  0.000E+00  0.000E+00  1.02513E+03  3.251E+00  4.715E+01  4.804E-01  7.541E-01
   1   13    5     8     2    2.1937E+02  2.5867E-01   2.1911E+02  0.000E+00  0.000E+00  0.000E+00  1.01887E+03  3.248E+00  4.709E+01  4.799E-01  1.797E-01
   1   13    4     8     3    2.1911E+02 -1.9099E+00   2.2102E+02  0.000E+00  0.000E+00  0.000E+00  1.01263E+03  3.252E+00  4.716E+01  4.806E+00 -1.325E-01
   1   13    3     8     4    2.2102E+02 -3.1182E+00   2.2413E+02  0.000E+00  0.000E+00  0.000E+00  1.00639E+03  3.266E+00  4.736E+01  4.826E+00 -2.154E-01
   1   13    2     8     5    2.2413E+02 -1.9270E+00   2.2606E+02  0.000E+00  0.000E+00  0.000E+00  1.00015E+03  3.280E+00  4.756E+01  4.846E+00 -1.325E-01
   1   13    1     8     6    2.2606E+02 -1.5653E+00   2.2763E+02  0.000E+00  0.000E+00  0.000E+00  9.95164E+02  3.289E+00  4.770E+01  2.916E+00 -1.789E-01





UNSATURATED ZONE PACKAGE VOLUMETRIC BUDGET FOR  TIME STEP    30 STRESS PERIOD    3
  ------------------------------------------------------------------------------



     CUMULATIVE VOLUMES      L**3       RATES FOR THIS TIME STEP      L**3/T
     ------------------                 ------------------------

           IN:                                      IN:
           ---                                      ---
        INFILTRATION =    23256673.1162          INFILTRATION =           4.4075

          OUT:                                     OUT:
          ----                                     ----
              UZF ET =     3813499.6318                UZF ET =           0.7250
        UZF RECHARGE =       73224.0000          UZF RECHARGE =       0.0000E+00

            IN - OUT =    19369949.4844              IN - OUT =           3.6825

          STORAGE:                                 STORAGE:
          --------                                 --------
      STORAGE CHANGE =    19369949.3662        STORAGE CHANGE =           3.6825

 PERCENT DISCREPANCY IS DIFFERENCE BETWEEN IN-OUT MINUS CHANGE IN STORAGE
 DIVIDED BY THE AVERAGE OF IN AND OUT TIMES 100

 PERCENT DISCREPANCY =           0.00     PERCENT DISCREPANCY =           0.00






1
  VOLUMETRIC BUDGET FOR AGRICULTURAL FIELDS AT TIME STEP   30, STRESS PERIOD   3
  ------------------------------------------------------------------------------

     CUMULATIVE VOLUMES      L**3       RATES FOR THIS TIME STEP      L**3/T
     ------------------                 ------------------------

           IN:                                      IN:
           ---                                      ---
               AG WELLS  =           0.0000                 AG WELLS  =           0.0000
      DIVERSION SEGMENTS =           0.0000        DIVERSION SEGMENTS =           0.0000
           GW IRRIGATION =           0.0000             GW IRRIGATION =           0.0000
           SW IRRIGATION =           0.0000             SW IRRIGATION =           0.0000
        SYSTEM LOSSES GW =           0.0000          SYSTEM LOSSES GW =           0.0000
        SYSTEM LOSSES SW =           0.0000          SYSTEM LOSSES SW =           0.0000

                TOTAL IN =           0.0000                  TOTAL IN =           0.0000

          OUT:                                     OUT:
          ----                                     ----
               AG WELLS  =           0.0000                 AG WELLS  =           0.0000
      DIVERSION SEGMENTS =           0.0000        DIVERSION SEGMENTS =           0.0000
           GW IRRIGATION =           0.0000             GW IRRIGATION =           0.0000
           SW IRRIGATION =           0.0000             SW IRRIGATION =           0.0000
        SYSTEM LOSSES GW =           0.0000          SYSTEM LOSSES GW =           0.0000
        SYSTEM LOSSES SW =           0.0000          SYSTEM LOSSES SW =           0.0000

               TOTAL OUT =           0.0000                 TOTAL OUT =           0.0000

                IN - OUT =           0.0000                  IN - OUT =           0.0000

     PERCENT DISCREPANCY =           0.00         PERCENT DISCREPANCY =           0.00



1
  VOLUMETRIC BUDGET FOR ENTIRE MODEL AT END OF TIME STEP   30, STRESS PERIOD   3
  ------------------------------------------------------------------------------

     CUMULATIVE VOLUMES      L**3       RATES FOR THIS TIME STEP      L**3/T
     ------------------                 ------------------------

           IN:                                      IN:
           ---                                      ---
             STORAGE     =     3047020.0000               STORAGE     =           0.4724
       CONSTANT HEAD     =           0.0000         CONSTANT HEAD     =           0.0000
     HEAD DEP BOUNDS     =     1525869.2500       HEAD DEP BOUNDS     =           0.2854
      STREAM LEAKAGE     =    63536340.0000        STREAM LEAKAGE     =          13.3947
        UZF RECHARGE     =       73223.9531          UZF RECHARGE     =           0.0000
               GW ET     =           0.0000                 GW ET     =           0.0000
     SURFACE LEAKAGE     =           0.0000       SURFACE LEAKAGE     =           0.0000
           AG WELLS      =           0.0000             AG WELLS      =           0.0000

                TOTAL IN =    68182456.0000                  TOTAL IN =          14.1525

          OUT:                                     OUT:
          ----                                     ----
             STORAGE     =    11250805.0000               STORAGE     =           5.3409
       CONSTANT HEAD     =           0.0000         CONSTANT HEAD     =           0.0000
     HEAD DEP BOUNDS     =     1549889.6250       HEAD DEP BOUNDS     =           0.2926
      STREAM LEAKAGE     =    55384084.0000        STREAM LEAKAGE     =           8.5203
        UZF RECHARGE     =           0.0000          UZF RECHARGE     =           0.0000
               GW ET     =       1.3918E-07                 GW ET     =           0.0000
     SURFACE LEAKAGE     =           0.0000       SURFACE LEAKAGE     =           0.0000
           AG WELLS      =           0.0000             AG WELLS      =           0.0000

               TOTAL OUT =    68184776.0000                 TOTAL OUT =          14.1539

                IN - OUT =       -2320.0000                  IN - OUT =      -1.3828E-03

     PERCENT DISCREPANCY =          -0.00         PERCENT DISCREPANCY =          -0.01






         TIME SUMMARY AT END OF TIME STEP   30 IN STRESS PERIOD    3
                    SECONDS     MINUTES      HOURS       DAYS        YEARS
                    -----------------------------------------------------------
   TIME STEP LENGTH  87667.      1461.1      24.352      1.0147     2.77799E-03
 STRESS PERIOD TIME 2.63000E+06  43833.      730.56      30.440     8.33397E-02
         TOTAL TIME 5.34640E+06  89107.      1485.1      61.880     0.16942    
1
1
                            STRESS PERIOD NO.    4, LENGTH =   2630000.    
                            -----------------------------------------------

                              NUMBER OF TIME STEPS =    30

                               MULTIPLIER FOR DELT =     1.000

                            INITIAL TIME STEP SIZE =   87666.66    

 REUSING NON-PARAMETER GHB CELLS FROM LAST STRESS PERIOD

      2 GHB CELLS

 REUSING STREAM SEGMENT DATA FROM LAST STRESS PERIOD



            AREAL INFILTRATION RATE
 READING ON UNIT   19 WITH FORMAT: (10F4.0)            

            1           2           3           4           5           6           7           8           9          10
 ........................................................................................................................
   1   1.2000E-09   0.000       0.000       0.000       0.000       0.000       0.000       0.000       0.000       0.000    
   2   2.1000E-09  2.0000E-09  8.0000E-10  8.5000E-09   0.000       0.000       0.000       0.000       0.000       0.000    
   3   5.0000E-10  1.1000E-09  8.8000E-09  5.5000E-09   0.000       0.000       0.000       0.000       0.000       0.000    
   4   8.5000E-09  1.1000E-09  1.1000E-09  1.1000E-09  2.0000E-09   0.000       0.000       0.000       0.000       0.000    
   5   8.5000E-09  1.1000E-09  1.1000E-09  1.1000E-09  1.1000E-09   0.000       0.000       0.000       0.000       0.000    
   6   8.5000E-09  5.2000E-09  2.1000E-09  1.1000E-09  1.5000E-09   0.000       0.000       0.000       0.000       0.000    
   7   8.5000E-09  5.2000E-09  2.1000E-09  1.2000E-09  2.0000E-09   0.000       0.000       0.000       0.000       0.000    
   8   5.0000E-10  5.2000E-09  2.1000E-09  1.2000E-09  5.0000E-09   0.000       0.000       0.000       0.000       0.000    
   9   5.0000E-10  5.2000E-09  2.1000E-09  1.2000E-09  5.0000E-09   0.000       0.000       0.000       0.000       0.000    
  10   5.0000E-10  5.2000E-09  2.1000E-09  1.2000E-09  5.8000E-09   0.000       0.000       0.000       0.000       0.000    
  11   1.0000E-10  1.1000E-09  1.1000E-09  1.2000E-09  5.0000E-09   0.000       0.000       0.000       0.000       0.000    
  12   1.1000E-09  1.1000E-09  1.1000E-09  1.1000E-09  2.0000E-09   0.000       0.000       0.000       0.000       0.000    
  13   1.1000E-09  2.2000E-09  2.2000E-09  2.1000E-09  1.0000E-09   0.000       0.000       0.000       0.000       0.000    
  14   2.0000E-10  5.5000E-09  5.5000E-09  5.2000E-09  1.0000E-09   0.000       0.000       0.000       0.000       0.000    
  15    0.000      8.8000E-09  8.8000E-09   0.000       0.000       0.000       0.000       0.000       0.000       0.000    

                  ET RATE =  5.000000E-10

 USING ET EXTINCTION DEPTH FROM PREVIOUS STRESS PERIOD. CURRENT PERIOD IS:       4

 USING EXTINCTION WATER CONTENT FROM PREVIOUS STRESS PERIOD. CURRENT PERIOD IS:       4

 USING AIR ENTRY PRESSURE FROM PREVIOUS STRESS PERIOD. CURRENT PERIOD IS:       4

 USING ROOT PRESSURE HEAD FROM PREVIOUS STRESS PERIOD. CURRENT PERIOD IS:       4

 USING ROOT ACTIVITY FROM PREVIOUS STRESS PERIOD. CURRENT PERIOD IS:       4

 PROCESSING AG STRESS PERIOD DATA

 READING AG STRESS PERIOD DATA

 READING IRRIGATION WELL

 END PROCESSING AG STRESS PERIOD DATA OPTIONS
 
 SOLVING FOR HEAD 
                                                   Max.-Head-Change                         Max.-Flux-Residual
  Residual-Control   Outer-Iter.   Inner-Iter.     Column Row Layer    Maximum-Head-Change  Column Row Layer    Maximum-Flux-Residual          L2-NORM 
          0                 1           2             2   13     1       0.1291436407E-01       4   13    1         0.7422244522E+00      0.1545177509E+01
          0                 2           2             4   13     1      -0.1239419314E-02       4   13    1        -0.7340111397E-01      0.1508431556E+00
          0                 3           1             4   13     1       0.8308799668E-04       4   13    1         0.5059113309E-02      0.1021721041E-01

    ------------------------------------------------
       NWT REQUIRED            3 OUTER ITERATIONS 
       AND A TOTAL OF          5 INNER ITERATIONS.
    ------------------------------------------------

 NO OUTPUT CONTROL FOR STRESS PERIOD    4   TIME STEP    1
 
 SOLVING FOR HEAD 
                                                   Max.-Head-Change                         Max.-Flux-Residual
  Residual-Control   Outer-Iter.   Inner-Iter.     Column Row Layer    Maximum-Head-Change  Column Row Layer    Maximum-Flux-Residual          L2-NORM 
          0                 1           2             2   13     1       0.1188989284E-01       2   13    1         0.6731578190E+00      0.1450966368E+01
          0                 2           2             4   13     1      -0.1119246842E-02       4   13    1        -0.6623524346E-01      0.1417980028E+00
          0                 3           1             4   13     1       0.7503906354E-04       4   13    1         0.4565612847E-02      0.9619704591E-02

    ------------------------------------------------
       NWT REQUIRED            3 OUTER ITERATIONS 
       AND A TOTAL OF          5 INNER ITERATIONS.
    ------------------------------------------------

 NO OUTPUT CONTROL FOR STRESS PERIOD    4   TIME STEP    2
 
 SOLVING FOR HEAD 
                                                   Max.-Head-Change                         Max.-Flux-Residual
  Residual-Control   Outer-Iter.   Inner-Iter.     Column Row Layer    Maximum-Head-Change  Column Row Layer    Maximum-Flux-Residual          L2-NORM 
          0                 1           2             2   13     1       0.1094758770E-01       2   13    1         0.6197288155E+00      0.1366846456E+01
          0                 2           2             2   13     1      -0.1014816515E-02       4   13    1        -0.5981217491E-01      0.1337275288E+00
          0                 3           1             4   13     1       0.6779002204E-04       4   13    1         0.4121304194E-02      0.9087425196E-02

    ------------------------------------------------
       NWT REQUIRED            3 OUTER ITERATIONS 
       AND A TOTAL OF          5 INNER ITERATIONS.
    ------------------------------------------------

 NO OUTPUT CONTROL FOR STRESS PERIOD    4   TIME STEP    3
 
 SOLVING FOR HEAD 
                                                   Max.-Head-Change                         Max.-Flux-Residual
  Residual-Control   Outer-Iter.   Inner-Iter.     Column Row Layer    Maximum-Head-Change  Column Row Layer    Maximum-Flux-Residual          L2-NORM 
          0                 1           2             2   13     1       0.1008089796E-01       2   13    1         0.5705896628E+00      0.1291797877E+01
          0                 2           2             2   13     1      -0.9348945195E-03       2   13    1        -0.5439276667E-01      0.1265332201E+00
          0                 3           1             4   13     1       0.6130788194E-04       4   13    1         0.3724150394E-02      0.8612336891E-02

    ------------------------------------------------
       NWT REQUIRED            3 OUTER ITERATIONS 
       AND A TOTAL OF          5 INNER ITERATIONS.
    ------------------------------------------------

 NO OUTPUT CONTROL FOR STRESS PERIOD    4   TIME STEP    4
 
 SOLVING FOR HEAD 
                                                   Max.-Head-Change                         Max.-Flux-Residual
  Residual-Control   Outer-Iter.   Inner-Iter.     Column Row Layer    Maximum-Head-Change  Column Row Layer    Maximum-Flux-Residual          L2-NORM 
          0                 1           2             2   13     1       0.9283800134E-02       2   13    1         0.5253984826E+00      0.1224918805E+01
          0                 2           2             2   13     1      -0.8613429983E-03       2   13    1        -0.5010600112E-01      0.1201315006E+00
          0                 3           1             4   13     1       0.5547894433E-04       4   13    1         0.3367167661E-02      0.8190394579E-02

    ------------------------------------------------
       NWT REQUIRED            3 OUTER ITERATIONS 
       AND A TOTAL OF          5 INNER ITERATIONS.
    ------------------------------------------------

 NO OUTPUT CONTROL FOR STRESS PERIOD    4   TIME STEP    5
 
 SOLVING FOR HEAD 
                                                   Max.-Head-Change                         Max.-Flux-Residual
  Residual-Control   Outer-Iter.   Inner-Iter.     Column Row Layer    Maximum-Head-Change  Column Row Layer    Maximum-Flux-Residual          L2-NORM 
          0                 1           2             2   13     1       0.8550677895E-02       2   13    1         0.4838367476E+00      0.1165347939E+01
          0                 2           2             2   13     1      -0.7936216897E-03       2   13    1        -0.4615931274E-01      0.1144307272E+00
          0                 3           1             2    2     1       0.5140191765E-04       4   13    1         0.3046200229E-02      0.7814748336E-02

    ------------------------------------------------
       NWT REQUIRED            3 OUTER ITERATIONS 
       AND A TOTAL OF          5 INNER ITERATIONS.
    ------------------------------------------------

 NO OUTPUT CONTROL FOR STRESS PERIOD    4   TIME STEP    6
 
 SOLVING FOR HEAD 
                                                   Max.-Head-Change                         Max.-Flux-Residual
  Residual-Control   Outer-Iter.   Inner-Iter.     Column Row Layer    Maximum-Head-Change  Column Row Layer    Maximum-Flux-Residual          L2-NORM 
          0                 1           2             2   13     1       0.7876422956E-02       2   13    1         0.4456146718E+00      0.1112329011E+01
          0                 2           2             2    2     1      -0.7501962391E-03       2   13    1        -0.4252615093E-01      0.1093615416E+00
          0                 3           1             2    2     1       0.5108556099E-04       2    2    1         0.2818321269E-02      0.7483074932E-02

    ------------------------------------------------
       NWT REQUIRED            3 OUTER ITERATIONS 
       AND A TOTAL OF          5 INNER ITERATIONS.
    ------------------------------------------------

 NO OUTPUT CONTROL FOR STRESS PERIOD    4   TIME STEP    7
 
 SOLVING FOR HEAD 
                                                   Max.-Head-Change                         Max.-Flux-Residual
  Residual-Control   Outer-Iter.   Inner-Iter.     Column Row Layer    Maximum-Head-Change  Column Row Layer    Maximum-Flux-Residual          L2-NORM 
          0                 1           2             2    2     1       0.7665180097E-02       2   13    1         0.4104622084E+00      0.1065159799E+01
          0                 2           2             2    2     1      -0.7456152104E-03       2    2    1        -0.4001410583E-01      0.1048541780E+00
          0                 3           1             2    2     1       0.5077361023E-04       2    2    1         0.2800987246E-02      0.7185612343E-02

    ------------------------------------------------
       NWT REQUIRED            3 OUTER ITERATIONS 
       AND A TOTAL OF          5 INNER ITERATIONS.
    ------------------------------------------------

 NO OUTPUT CONTROL FOR STRESS PERIOD    4   TIME STEP    8
 
 SOLVING FOR HEAD 
                                                   Max.-Head-Change                         Max.-Flux-Residual
  Residual-Control   Outer-Iter.   Inner-Iter.     Column Row Layer    Maximum-Head-Change  Column Row Layer    Maximum-Flux-Residual          L2-NORM 
          0                 1           2             2    2     1       0.7618653474E-02       2    2    1         0.3976932564E+00      0.1023211177E+01
          0                 2           2             2    2     1      -0.7410893999E-03       2    2    1        -0.3976946927E-01      0.1008488759E+00
          0                 3           1             2    2     1       0.5046541974E-04       2    2    1         0.2783862695E-02      0.6923903845E-02

    ------------------------------------------------
       NWT REQUIRED            3 OUTER ITERATIONS 
       AND A TOTAL OF          5 INNER ITERATIONS.
    ------------------------------------------------

 NO OUTPUT CONTROL FOR STRESS PERIOD    4   TIME STEP    9
 
 SOLVING FOR HEAD 
                                                   Max.-Head-Change                         Max.-Flux-Residual
  Residual-Control   Outer-Iter.   Inner-Iter.     Column Row Layer    Maximum-Head-Change  Column Row Layer    Maximum-Flux-Residual          L2-NORM 
          0                 1           2             2    2     1       0.7572771946E-02       2    2    1         0.3952809092E+00      0.9858868544E+00
          0                 2           2             2    2     1      -0.7366263410E-03       2    2    1        -0.3952823209E-01      0.9728538109E-01
          0                 3           1             2    2     1       0.5016150191E-04       2    2    1         0.2766976100E-02      0.6690236110E-02

    ------------------------------------------------
       NWT REQUIRED            3 OUTER ITERATIONS 
       AND A TOTAL OF          5 INNER ITERATIONS.
    ------------------------------------------------

 NO OUTPUT CONTROL FOR STRESS PERIOD    4   TIME STEP   10
 
 SOLVING FOR HEAD 
                                                   Max.-Head-Change                         Max.-Flux-Residual
  Residual-Control   Outer-Iter.   Inner-Iter.     Column Row Layer    Maximum-Head-Change  Column Row Layer    Maximum-Flux-Residual          L2-NORM 
          0                 1           2             2    2     1       0.7527438363E-02       2    2    1         0.3928974485E+00      0.9526858795E+00
          0                 2           2             2    2     1      -0.7322165832E-03       2    2    1        -0.3928988361E-01      0.9411732474E-01
          0                 3           1             2    2     1       0.4986121442E-04       2    2    1         0.2750291725E-02      0.6482025348E-02

    ------------------------------------------------
       NWT REQUIRED            3 OUTER ITERATIONS 
       AND A TOTAL OF          5 INNER ITERATIONS.
    ------------------------------------------------

 NO OUTPUT CONTROL FOR STRESS PERIOD    4   TIME STEP   11
 
 SOLVING FOR HEAD 
                                                   Max.-Head-Change                         Max.-Flux-Residual
  Residual-Control   Outer-Iter.   Inner-Iter.     Column Row Layer    Maximum-Head-Change  Column Row Layer    Maximum-Flux-Residual          L2-NORM 
          0                 1           2             2    2     1       0.7482730515E-02       2    2    1         0.3905469588E+00      0.9231268076E+00
          0                 2           2             2    2     1      -0.7278676929E-03       2    2    1        -0.3905483228E-01      0.9129473615E-01
          0                 3           1             2    2     1       0.4956507131E-04       2    2    1         0.2733838142E-02      0.6295853003E-02

    ------------------------------------------------
       NWT REQUIRED            3 OUTER ITERATIONS 
       AND A TOTAL OF          5 INNER ITERATIONS.
    ------------------------------------------------

 NO OUTPUT CONTROL FOR STRESS PERIOD    4   TIME STEP   12
 
 SOLVING FOR HEAD 
                                                   Max.-Head-Change                         Max.-Flux-Residual
  Residual-Control   Outer-Iter.   Inner-Iter.     Column Row Layer    Maximum-Head-Change  Column Row Layer    Maximum-Flux-Residual          L2-NORM 
          0                 1           2             2    2     1       0.7438639191E-02       2    2    1         0.3882289128E+00      0.8967800030E+00
          0                 2           2             2    2     1      -0.7235787743E-03       2    2    1        -0.3882302535E-01      0.8877932845E-01
          0                 3           1             2    2     1       0.4927301223E-04       2    2    1         0.2717611678E-02      0.6131293749E-02

    ------------------------------------------------
       NWT REQUIRED            3 OUTER ITERATIONS 
       AND A TOTAL OF          5 INNER ITERATIONS.
    ------------------------------------------------

 NO OUTPUT CONTROL FOR STRESS PERIOD    4   TIME STEP   13
 
 SOLVING FOR HEAD 
                                                   Max.-Head-Change                         Max.-Flux-Residual
  Residual-Control   Outer-Iter.   Inner-Iter.     Column Row Layer    Maximum-Head-Change  Column Row Layer    Maximum-Flux-Residual          L2-NORM 
          0                 1           2             2    2     1       0.7395066947E-02       2    2    1         0.3859382712E+00      0.8732756477E+00
          0                 2           2             2    2     1      -0.7193403493E-03       2    2    1        -0.3859395894E-01      0.8653599931E-01
          0                 3           1             2    2     1       0.4898439178E-04       2    2    1         0.2701577051E-02      0.5985114998E-02

    ------------------------------------------------
       NWT REQUIRED            3 OUTER ITERATIONS 
       AND A TOTAL OF          5 INNER ITERATIONS.
    ------------------------------------------------

 NO OUTPUT CONTROL FOR STRESS PERIOD    4   TIME STEP   14
 
 SOLVING FOR HEAD 
                                                   Max.-Head-Change                         Max.-Flux-Residual
  Residual-Control   Outer-Iter.   Inner-Iter.     Column Row Layer    Maximum-Head-Change  Column Row Layer    Maximum-Flux-Residual          L2-NORM 
          0                 1           2             2    2     1       0.7352092825E-02       2    2    1         0.3836791047E+00      0.8522708167E+00
          0                 2           2             2    2     1      -0.7151601053E-03       2    2    1        -0.3836804008E-01      0.8452999624E-01
          0                 3           1             2    2     1       0.4869973276E-04       2    2    1         0.2685762735E-02      0.5852554705E-02

    ------------------------------------------------
       NWT REQUIRED            3 OUTER ITERATIONS 
       AND A TOTAL OF          5 INNER ITERATIONS.
    ------------------------------------------------

 NO OUTPUT CONTROL FOR STRESS PERIOD    4   TIME STEP   15
 
 SOLVING FOR HEAD 
                                                   Max.-Head-Change                         Max.-Flux-Residual
  Residual-Control   Outer-Iter.   Inner-Iter.     Column Row Layer    Maximum-Head-Change  Column Row Layer    Maximum-Flux-Residual          L2-NORM 
          0                 1           2             2    2     1       0.7309707334E-02       2    2    1         0.3814509500E+00      0.8334775250E+00
          0                 2           2             2    2     1      -0.7110371203E-03       2    2    1        -0.3814522245E-01      0.8273363903E-01
          0                 3           1             2    2     1       0.4841897318E-04       2    2    1         0.2670165520E-02      0.5735065420E-02

    ------------------------------------------------
       NWT REQUIRED            3 OUTER ITERATIONS 
       AND A TOTAL OF          5 INNER ITERATIONS.
    ------------------------------------------------

 NO OUTPUT CONTROL FOR STRESS PERIOD    4   TIME STEP   16
 
 SOLVING FOR HEAD 
                                                   Max.-Head-Change                         Max.-Flux-Residual
  Residual-Control   Outer-Iter.   Inner-Iter.     Column Row Layer    Maximum-Head-Change  Column Row Layer    Maximum-Flux-Residual          L2-NORM 
          0                 1           2             2    2     1       0.7267901142E-02       2    2    1         0.3792533153E+00      0.8166114827E+00
          0                 2           2             2    2     1      -0.7069704864E-03       2    2    1        -0.3792545690E-01      0.8111813131E-01
          0                 3           1             2    2     1       0.4814205054E-04       2    2    1         0.2654781947E-02      0.5628594145E-02

    ------------------------------------------------
       NWT REQUIRED            3 OUTER ITERATIONS 
       AND A TOTAL OF          5 INNER ITERATIONS.
    ------------------------------------------------

 NO OUTPUT CONTROL FOR STRESS PERIOD    4   TIME STEP   17
 
 SOLVING FOR HEAD 
                                                   Max.-Head-Change                         Max.-Flux-Residual
  Residual-Control   Outer-Iter.   Inner-Iter.     Column Row Layer    Maximum-Head-Change  Column Row Layer    Maximum-Flux-Residual          L2-NORM 
          0                 1           2             2    2     1       0.7226578120E-02       2    2    1         0.3770811541E+00      0.8014519016E+00
          0                 2           2             2    2     1      -0.7029508519E-03       2    2    1        -0.3770823872E-01      0.7966932929E-01
          0                 3           1             2    2     1       0.4786832867E-04       2    2    1         0.2639576682E-02      0.5533470574E-02

    ------------------------------------------------
       NWT REQUIRED            3 OUTER ITERATIONS 
       AND A TOTAL OF          5 INNER ITERATIONS.
    ------------------------------------------------

 NO OUTPUT CONTROL FOR STRESS PERIOD    4   TIME STEP   18
 
 SOLVING FOR HEAD 
                                                   Max.-Head-Change                         Max.-Flux-Residual
  Residual-Control   Outer-Iter.   Inner-Iter.     Column Row Layer    Maximum-Head-Change  Column Row Layer    Maximum-Flux-Residual          L2-NORM 
          0                 1           2             2    2     1       0.7185817213E-02       2    2    1         0.3749386069E+00      0.7877850534E+00
          0                 2           2             2    2     1      -0.6989858965E-03       2    2    1        -0.3749398198E-01      0.7835825577E-01
          0                 3           1             2    2     1       0.4759833038E-04       2    2    1         0.2624578723E-02      0.5446225819E-02

    ------------------------------------------------
       NWT REQUIRED            3 OUTER ITERATIONS 
       AND A TOTAL OF          5 INNER ITERATIONS.
    ------------------------------------------------

 NO OUTPUT CONTROL FOR STRESS PERIOD    4   TIME STEP   19
 
 SOLVING FOR HEAD 
                                                   Max.-Head-Change                         Max.-Flux-Residual
  Residual-Control   Outer-Iter.   Inner-Iter.     Column Row Layer    Maximum-Head-Change  Column Row Layer    Maximum-Flux-Residual          L2-NORM 
          0                 1           2             2    2     1       0.7145522239E-02       2    2    1         0.3728206418E+00      0.7754222715E+00
          0                 2           2             2    2     1      -0.6950662649E-03       2    2    1        -0.3728218351E-01      0.7717283978E-01
          0                 3           1             2    2     1       0.4733141808E-04       2    2    1         0.2609752836E-02      0.5368631241E-02

    ------------------------------------------------
       NWT REQUIRED            3 OUTER ITERATIONS 
       AND A TOTAL OF          5 INNER ITERATIONS.
    ------------------------------------------------

 NO OUTPUT CONTROL FOR STRESS PERIOD    4   TIME STEP   20
 
 SOLVING FOR HEAD 
                                                   Max.-Head-Change                         Max.-Flux-Residual
  Residual-Control   Outer-Iter.   Inner-Iter.     Column Row Layer    Maximum-Head-Change  Column Row Layer    Maximum-Flux-Residual          L2-NORM 
          0                 1           2             2    2     1       0.7105773249E-02       2    2    1         0.3707313975E+00      0.7642129154E+00
          0                 2           2             2    2     1      -0.6911997427E-03       2    2    1        -0.3707325714E-01      0.7609518419E-01
          0                 3           1             2    2     1       0.4706812285E-04       2    2    1         0.2595128013E-02      0.5296516330E-02

    ------------------------------------------------
       NWT REQUIRED            3 OUTER ITERATIONS 
       AND A TOTAL OF          5 INNER ITERATIONS.
    ------------------------------------------------

 NO OUTPUT CONTROL FOR STRESS PERIOD    4   TIME STEP   21
 
 SOLVING FOR HEAD 
                                                   Max.-Head-Change                         Max.-Flux-Residual
  Residual-Control   Outer-Iter.   Inner-Iter.     Column Row Layer    Maximum-Head-Change  Column Row Layer    Maximum-Flux-Residual          L2-NORM 
          0                 1           2             2    2     1       0.7066561179E-02       2    2    1         0.3686704618E+00      0.7540221984E+00
          0                 2           2             2    2     1      -0.6873854494E-03       2    2    1        -0.3686716171E-01      0.7511477450E-01
          0                 3           1             2    2     1       0.4680838364E-04       2    2    1         0.2580701348E-02      0.5232455015E-02

    ------------------------------------------------
       NWT REQUIRED            3 OUTER ITERATIONS 
       AND A TOTAL OF          5 INNER ITERATIONS.
    ------------------------------------------------

 NO OUTPUT CONTROL FOR STRESS PERIOD    4   TIME STEP   22
 
 SOLVING FOR HEAD 
                                                   Max.-Head-Change                         Max.-Flux-Residual
  Residual-Control   Outer-Iter.   Inner-Iter.     Column Row Layer    Maximum-Head-Change  Column Row Layer    Maximum-Flux-Residual          L2-NORM 
          0                 1           2             2    2     1       0.7027877936E-02       2    2    1         0.3666373649E+00      0.7447206093E+00
          0                 2           2             2    2     1      -0.6836225964E-03       2    2    1        -0.3666385016E-01      0.7421720127E-01
          0                 3           1             2    2     1       0.4655214766E-04       2    2    1         0.2566469540E-02      0.5172187362E-02

    ------------------------------------------------
       NWT REQUIRED            3 OUTER ITERATIONS 
       AND A TOTAL OF          5 INNER ITERATIONS.
    ------------------------------------------------

 NO OUTPUT CONTROL FOR STRESS PERIOD    4   TIME STEP   23
 
 SOLVING FOR HEAD 
                                                   Max.-Head-Change                         Max.-Flux-Residual
  Residual-Control   Outer-Iter.   Inner-Iter.     Column Row Layer    Maximum-Head-Change  Column Row Layer    Maximum-Flux-Residual          L2-NORM 
          0                 1           2             2    2     1       0.6989628295E-02       2    2    1         0.3646271231E+00      0.7361986117E+00
          0                 2           2             2    2     1      -0.6799019228E-03       2    2    1        -0.3646282421E-01      0.7339498063E-01
          0                 3           1             2    2     1       0.4629878372E-04       2    2    1         0.2552397735E-02      0.5117283843E-02

    ------------------------------------------------
       NWT REQUIRED            3 OUTER ITERATIONS 
       AND A TOTAL OF          5 INNER ITERATIONS.
    ------------------------------------------------

 NO OUTPUT CONTROL FOR STRESS PERIOD    4   TIME STEP   24
 
 SOLVING FOR HEAD 
                                                   Max.-Head-Change                         Max.-Flux-Residual
  Residual-Control   Outer-Iter.   Inner-Iter.     Column Row Layer    Maximum-Head-Change  Column Row Layer    Maximum-Flux-Residual          L2-NORM 
          0                 1           2             2    2     1       0.6951891672E-02       2    2    1         0.3626439268E+00      0.7283768858E+00
          0                 2           2             2    2     1      -0.6762311513E-03       2    2    1        -0.3626450281E-01      0.7263861494E-01
          0                 3           1             2    2     1       0.4604881816E-04       2    2    1         0.2538515242E-02      0.5066396324E-02

    ------------------------------------------------
       NWT REQUIRED            3 OUTER ITERATIONS 
       AND A TOTAL OF          5 INNER ITERATIONS.
    ------------------------------------------------

 NO OUTPUT CONTROL FOR STRESS PERIOD    4   TIME STEP   25
 
 SOLVING FOR HEAD 
                                                   Max.-Head-Change                         Max.-Flux-Residual
  Residual-Control   Outer-Iter.   Inner-Iter.     Column Row Layer    Maximum-Head-Change  Column Row Layer    Maximum-Flux-Residual          L2-NORM 
          0                 1           2             2    2     1       0.6914661135E-02       2    2    1         0.3606873299E+00      0.7211578187E+00
          0                 2           2             2    2     1      -0.6726096091E-03       2    2    1        -0.3606884138E-01      0.7193931484E-01
          0                 3           1             2    2     1       0.4580220485E-04       2    2    1         0.2524818957E-02      0.5019546106E-02

    ------------------------------------------------
       NWT REQUIRED            3 OUTER ITERATIONS 
       AND A TOTAL OF          5 INNER ITERATIONS.
    ------------------------------------------------

 NO OUTPUT CONTROL FOR STRESS PERIOD    4   TIME STEP   26
 
 SOLVING FOR HEAD 
                                                   Max.-Head-Change                         Max.-Flux-Residual
  Residual-Control   Outer-Iter.   Inner-Iter.     Column Row Layer    Maximum-Head-Change  Column Row Layer    Maximum-Flux-Residual          L2-NORM 
          0                 1           2             2    2     1       0.6877927951E-02       2    2    1         0.3587569729E+00      0.7144957719E+00
          0                 2           2             2    2     1      -0.6690364468E-03       2    2    1        -0.3587580403E-01      0.7129307898E-01
          0                 3           1             2    2     1       0.4555888579E-04       2    2    1         0.2511306336E-02      0.4976184076E-02

    ------------------------------------------------
       NWT REQUIRED            3 OUTER ITERATIONS 
       AND A TOTAL OF          5 INNER ITERATIONS.
    ------------------------------------------------

 NO OUTPUT CONTROL FOR STRESS PERIOD    4   TIME STEP   27
 
 SOLVING FOR HEAD 
                                                   Max.-Head-Change                         Max.-Flux-Residual
  Residual-Control   Outer-Iter.   Inner-Iter.     Column Row Layer    Maximum-Head-Change  Column Row Layer    Maximum-Flux-Residual          L2-NORM 
          0                 1           2             2    2     1       0.6841597411E-02       2    2    1         0.3568478384E+00      0.7082946571E+00
          0                 2           2             2    2     1      -0.6655024519E-03       2    2    1        -0.3568488895E-01      0.7068992888E-01
          0                 3           1             2    2     1       0.4531823452E-04       2    2    1         0.2497942326E-02      0.4935528663E-02

    ------------------------------------------------
       NWT REQUIRED            3 OUTER ITERATIONS 
       AND A TOTAL OF          5 INNER ITERATIONS.
    ------------------------------------------------

 NO OUTPUT CONTROL FOR STRESS PERIOD    4   TIME STEP   28
 
 SOLVING FOR HEAD 
                                                   Max.-Head-Change                         Max.-Flux-Residual
  Residual-Control   Outer-Iter.   Inner-Iter.     Column Row Layer    Maximum-Head-Change  Column Row Layer    Maximum-Flux-Residual          L2-NORM 
          0                 1           2             2    2     1       0.6805750214E-02       2    2    1         0.3549641451E+00      0.7025317232E+00
          0                 2           2             2    2     1      -0.6620154723E-03       2    2    1        -0.3549651799E-01      0.7012928640E-01
          0                 3           1             2    2     1       0.4508078401E-04       2    2    1         0.2484756357E-02      0.4897707391E-02

    ------------------------------------------------
       NWT REQUIRED            3 OUTER ITERATIONS 
       AND A TOTAL OF          5 INNER ITERATIONS.
    ------------------------------------------------

 NO OUTPUT CONTROL FOR STRESS PERIOD    4   TIME STEP   29
 
 SOLVING FOR HEAD 
                                                   Max.-Head-Change                         Max.-Flux-Residual
  Residual-Control   Outer-Iter.   Inner-Iter.     Column Row Layer    Maximum-Head-Change  Column Row Layer    Maximum-Flux-Residual          L2-NORM 
          0                 1           2             2    2     1       0.5350702397E-02       2    2    1         0.2788864281E+00      0.6869812915E+00
          0                 2           2             2    2     1      -0.5204783086E-03       2    2    1        -0.2788870075E-01      0.6807774309E-01
          0                 3           1             2    2     1       0.3544263494E-04       2    2    1         0.1952209339E-02      0.4709288867E-02

    ------------------------------------------------
       NWT REQUIRED            3 OUTER ITERATIONS 
       AND A TOTAL OF          5 INNER ITERATIONS.
    ------------------------------------------------

 NO OUTPUT CONTROL FOR STRESS PERIOD    4   TIME STEP   30



 STREAM LISTING     PERIOD      4   STEP       30

 LAYER ROW COL. STREAM  RCH.  FLOW INTO     FLOW TO   FLOW OUT OF   OVRLND.     DIRECT     STREAM       STREAM     STREAM     STREAM   STREAMBED  STREAMBED
                SEG.NO.  NO.  STRM. RCH.    AQUIFER    STRM. RCH.    RUNOFF     PRECIP       ET          HEAD       DEPTH      WIDTH   CONDCTNC.   GRADIENT

   1    1    1     1     1    6.2247E+01  3.7977E-01   6.1867E+01  0.000E+00  0.000E+00  0.000E+00  1.09460E+03  1.553E+00  1.854E+01  8.342E-02  1.518E+00
   1    2    2     1     2    6.1867E+01  5.8816E-01   6.1279E+01  0.000E+00  0.000E+00  0.000E+00  1.08961E+03  1.547E+00  1.848E+01  1.294E-01  1.516E+00
   1    3    3     1     3    6.1279E+01  5.0162E-01   6.0777E+01  0.000E+00  0.000E+00  0.000E+00  1.08396E+03  1.540E+00  1.841E+01  1.105E-01  1.513E+00
   1    3    4     1     4    6.0777E+01  4.6193E-01   6.0316E+01  0.000E+00  0.000E+00  0.000E+00  1.07894E+03  1.534E+00  1.836E+01  1.019E-01  1.511E+00
   1    4    5     2     1    5.8316E+01  3.9026E-01   5.7925E+01  0.000E+00  0.000E+00  0.000E+00  1.07394E+03  2.003E+00  1.200E+01  7.800E-02  1.668E+00
   1    5    6     2     2    5.7925E+01  2.9977E-01   5.7626E+01  0.000E+00  0.000E+00  0.000E+00  1.06851E+03  1.996E+00  1.200E+01  6.000E-02  1.665E+00
   1    6    6     2     3    5.7626E+01  2.9940E-01   5.7326E+01  0.000E+00  0.000E+00  0.000E+00  1.06378E+03  1.990E+00  1.200E+01  6.000E-02  1.663E+00
   1    7    6     2     4    5.7326E+01  2.9902E-01   5.7027E+01  0.000E+00  0.000E+00  0.000E+00  1.05906E+03  1.984E+00  1.200E+01  6.000E-02  1.661E+00
   1    8    6     2     5    5.7027E+01  2.9865E-01   5.6728E+01  0.000E+00  0.000E+00  0.000E+00  1.05434E+03  1.977E+00  1.200E+01  6.000E-02  1.659E+00
   1    3    5     3     1    2.0000E+00  2.8252E-01   1.7175E+00  0.000E+00  0.000E+00  0.000E+00  1.07555E+03  1.909E+00  9.636E+00  7.227E-02  1.955E+00
   1    3    6     3     2    1.7175E+00  2.4905E-01   1.4684E+00  0.000E+00  0.000E+00  0.000E+00  1.07264E+03  1.727E+00  8.909E+00  6.682E-02  1.864E+00
   1    3    7     3     3    1.4684E+00  1.9718E-01   1.2712E+00  0.000E+00  0.000E+00  0.000E+00  1.06987E+03  1.555E+00  8.218E+00  5.547E-02  1.777E+00
   1    4    8     3     4    1.2712E+00  2.2567E-01   1.0456E+00  0.000E+00  0.000E+00  0.000E+00  1.06682E+03  1.364E+00  7.455E+00  6.709E-02  1.682E+00
   1    5    8     3     5    1.0456E+00  1.5790E-01   8.8768E-01  0.000E+00  0.000E+00  0.000E+00  1.06362E+03  1.164E+00  6.655E+00  4.991E-02  1.582E+00
   1    6    8     3     6    8.8768E-01  5.5980E-02   8.3170E-01  0.000E+00  0.000E+00  0.000E+00  1.06158E+03  1.036E+00  6.145E+00  1.844E-02  1.518E+00
   1    5   10     4     1    1.0000E+01  9.0919E-02   9.9091E+00  0.000E+00  0.000E+00  0.000E+00  1.07836E+03  6.368E-01  1.000E+01  2.500E-02  1.212E+00
   1    5    9     4     2    9.9091E+00  1.8158E-01   9.7275E+00  0.000E+00  0.000E+00  0.000E+00  1.07154E+03  6.315E-01  1.000E+01  5.000E-02  1.211E+00
   1    6    8     4     3    9.7275E+00  1.2689E-01   9.6006E+00  0.000E+00  0.000E+00  0.000E+00  1.06381E+03  6.256E-01  1.000E+01  3.500E-02  1.209E+00
   1    6    8     5     1    1.0432E+01  2.2686E-01   1.0205E+01  0.000E+00  0.000E+00  0.000E+00  1.05868E+03  6.790E-01  1.542E+01  6.166E-02  1.226E+00
   1    7    7     5     2    1.0205E+01  2.7894E-01   9.9265E+00  0.000E+00  0.000E+00  0.000E+00  1.05417E+03  6.732E-01  1.519E+01  7.594E-02  1.224E+00
   1    8    7     5     3    9.9265E+00  1.9221E-01   9.7343E+00  0.000E+00  0.000E+00  0.000E+00  1.04992E+03  6.676E-01  1.497E+01  5.241E-02  1.223E+00
   1    8    6     5     4    9.7343E+00  1.3577E-01   9.5985E+00  0.000E+00  0.000E+00  0.000E+00  1.04691E+03  6.637E-01  1.482E+01  3.706E-02  1.221E+00
   1    9    6     6     1    6.6327E+01  3.1138E-01   6.6016E+01  0.000E+00  0.000E+00  0.000E+00  1.04492E+03  2.190E+00  1.200E+01  6.000E-02  1.730E+00
   1   10    7     6     2    6.6016E+01  3.1101E-01   6.5705E+01  0.000E+00  0.000E+00  0.000E+00  1.04037E+03  2.183E+00  1.200E+01  6.000E-02  1.728E+00
   1   11    7     6     3    6.5705E+01  3.1064E-01   6.5394E+01  0.000E+00  0.000E+00  0.000E+00  1.03581E+03  2.177E+00  1.200E+01  6.000E-02  1.726E+00
   1   12    7     6     4    6.5394E+01  3.1026E-01   6.5084E+01  0.000E+00  0.000E+00  0.000E+00  1.03126E+03  2.171E+00  1.200E+01  6.000E-02  1.724E+00
   1   13    7     6     5    6.5084E+01  2.1634E-02   6.5062E+01  0.000E+00  0.000E+00  0.000E+00  1.02808E+03  2.168E+00  1.200E+01  2.400E-02  3.005E-01
   1   14    9     7     1    1.5000E+02  1.3316E+00   1.4867E+02  0.000E+00  0.000E+00  0.000E+00  1.03987E+03  2.288E+00  5.529E+01  5.593E-01  7.936E-01
   1   13    8     7     2    1.4867E+02  1.8148E+00   1.4685E+02  0.000E+00  0.000E+00  0.000E+00  1.03478E+03  2.279E+00  5.526E+01  6.148E-01  9.840E-01
   1   13    7     7     3    1.4685E+02  1.4044E+00   1.4545E+02  0.000E+00  0.000E+00  0.000E+00  1.02969E+03  2.271E+00  5.522E+01  5.585E-01  8.382E-01
   1   13    6     8     1    2.1051E+02  1.0054E+00   2.0951E+02  0.000E+00  0.000E+00  0.000E+00  1.02507E+03  3.196E+00  4.634E+01  4.722E-01  7.097E-01
   1   13    5     8     2    2.0951E+02  1.9098E-01   2.0931E+02  0.000E+00  0.000E+00  0.000E+00  1.01882E+03  3.192E+00  4.629E+01  4.717E-01  1.350E-01
   1   13    4     8     3    2.0931E+02 -2.6823E+00   2.1200E+02  0.000E+00  0.000E+00  0.000E+00  1.01257E+03  3.199E+00  4.639E+01  4.727E+00 -1.891E-01
   1   13    3     8     4    2.1200E+02 -3.8555E+00   2.1585E+02  0.000E+00  0.000E+00  0.000E+00  1.00634E+03  3.218E+00  4.666E+01  4.755E+00 -2.703E-01
   1   13    2     8     5    2.1585E+02 -2.7438E+00   2.1860E+02  0.000E+00  0.000E+00  0.000E+00  1.00011E+03  3.236E+00  4.693E+01  4.782E+00 -1.913E-01
   1   13    1     8     6    2.1860E+02 -2.0240E+00   2.2062E+02  0.000E+00  0.000E+00  0.000E+00  9.95125E+02  3.250E+00  4.712E+01  2.881E+00 -2.342E-01





UNSATURATED ZONE PACKAGE VOLUMETRIC BUDGET FOR  TIME STEP    30 STRESS PERIOD    4
  ------------------------------------------------------------------------------



     CUMULATIVE VOLUMES      L**3       RATES FOR THIS TIME STEP      L**3/T
     ------------------                 ------------------------

           IN:                                      IN:
           ---                                      ---
        INFILTRATION =    34848397.6743          INFILTRATION =           4.4075

          OUT:                                     OUT:
          ----                                     ----
              UZF ET =     5720249.5193                UZF ET =           0.7250
        UZF RECHARGE =       73224.0000          UZF RECHARGE =       0.0000E+00

            IN - OUT =    29054924.1550              IN - OUT =           3.6825

          STORAGE:                                 STORAGE:
          --------                                 --------
      STORAGE CHANGE =    29054923.9753        STORAGE CHANGE =           3.6825

 PERCENT DISCREPANCY IS DIFFERENCE BETWEEN IN-OUT MINUS CHANGE IN STORAGE
 DIVIDED BY THE AVERAGE OF IN AND OUT TIMES 100

 PERCENT DISCREPANCY =           0.00     PERCENT DISCREPANCY =           0.00






1
  VOLUMETRIC BUDGET FOR AGRICULTURAL FIELDS AT TIME STEP   30, STRESS PERIOD   4
  ------------------------------------------------------------------------------

     CUMULATIVE VOLUMES      L**3       RATES FOR THIS TIME STEP      L**3/T
     ------------------                 ------------------------

           IN:                                      IN:
           ---                                      ---
               AG WELLS  =           0.0000                 AG WELLS  =           0.0000
      DIVERSION SEGMENTS =           0.0000        DIVERSION SEGMENTS =           0.0000
           GW IRRIGATION =           0.0000             GW IRRIGATION =           0.0000
           SW IRRIGATION =           0.0000             SW IRRIGATION =           0.0000
        SYSTEM LOSSES GW =           0.0000          SYSTEM LOSSES GW =           0.0000
        SYSTEM LOSSES SW =           0.0000          SYSTEM LOSSES SW =           0.0000

                TOTAL IN =           0.0000                  TOTAL IN =           0.0000

          OUT:                                     OUT:
          ----                                     ----
               AG WELLS  =           0.0000                 AG WELLS  =           0.0000
      DIVERSION SEGMENTS =           0.0000        DIVERSION SEGMENTS =           0.0000
           GW IRRIGATION =           0.0000             GW IRRIGATION =           0.0000
           SW IRRIGATION =           0.0000             SW IRRIGATION =           0.0000
        SYSTEM LOSSES GW =           0.0000          SYSTEM LOSSES GW =           0.0000
        SYSTEM LOSSES SW =           0.0000          SYSTEM LOSSES SW =           0.0000

               TOTAL OUT =           0.0000                 TOTAL OUT =           0.0000

                IN - OUT =           0.0000                  IN - OUT =           0.0000

     PERCENT DISCREPANCY =           0.00         PERCENT DISCREPANCY =           0.00



1
  VOLUMETRIC BUDGET FOR ENTIRE MODEL AT END OF TIME STEP   30, STRESS PERIOD   4
  ------------------------------------------------------------------------------

     CUMULATIVE VOLUMES      L**3       RATES FOR THIS TIME STEP      L**3/T
     ------------------                 ------------------------

           IN:                                      IN:
           ---                                      ---
             STORAGE     =     4269767.0000               STORAGE     =           1.1045
       CONSTANT HEAD     =           0.0000         CONSTANT HEAD     =           0.0000
     HEAD DEP BOUNDS     =     2276621.5000       HEAD DEP BOUNDS     =           0.2855
      STREAM LEAKAGE     =    98974152.0000        STREAM LEAKAGE     =          12.9321
        UZF RECHARGE     =       73223.9531          UZF RECHARGE     =           0.0000
               GW ET     =           0.0000                 GW ET     =           0.0000
     SURFACE LEAKAGE     =           0.0000       SURFACE LEAKAGE     =           0.0000
           AG WELLS      =           0.0000             AG WELLS      =           0.0000

                TOTAL IN =   105593768.0000                  TOTAL IN =          14.3221

          OUT:                                     OUT:
          ----                                     ----
             STORAGE     =    22373962.0000               STORAGE     =           2.7195
       CONSTANT HEAD     =           0.0000         CONSTANT HEAD     =           0.0000
     HEAD DEP BOUNDS     =     2327708.5000       HEAD DEP BOUNDS     =           0.2974
      STREAM LEAKAGE     =    80897248.0000        STREAM LEAKAGE     =          11.3056
        UZF RECHARGE     =           0.0000          UZF RECHARGE     =           0.0000
               GW ET     =       2.7337E-06                 GW ET     =       2.0957E-12
     SURFACE LEAKAGE     =           0.0000       SURFACE LEAKAGE     =           0.0000
           AG WELLS      =           0.0000             AG WELLS      =           0.0000

               TOTAL OUT =   105598920.0000                 TOTAL OUT =          14.3225

                IN - OUT =       -5152.0000                  IN - OUT =      -4.5967E-04

     PERCENT DISCREPANCY =          -0.00         PERCENT DISCREPANCY =          -0.00






         TIME SUMMARY AT END OF TIME STEP   30 IN STRESS PERIOD    4
                    SECONDS     MINUTES      HOURS       DAYS        YEARS
                    -----------------------------------------------------------
   TIME STEP LENGTH  87667.      1461.1      24.352      1.0147     2.77799E-03
 STRESS PERIOD TIME 2.63000E+06  43833.      730.56      30.440     8.33397E-02
         TOTAL TIME 7.97639E+06 1.32940E+05  2215.7      92.319     0.25276    
1
1
                            STRESS PERIOD NO.    5, LENGTH =   2630000.    
                            -----------------------------------------------

                              NUMBER OF TIME STEPS =    30

                               MULTIPLIER FOR DELT =     1.000

                            INITIAL TIME STEP SIZE =   87666.66    

 REUSING NON-PARAMETER GHB CELLS FROM LAST STRESS PERIOD

      2 GHB CELLS

 REUSING STREAM SEGMENT DATA FROM LAST STRESS PERIOD



            AREAL INFILTRATION RATE
 READING ON UNIT   19 WITH FORMAT: (10F4.0)            

            1           2           3           4           5           6           7           8           9          10
 ........................................................................................................................
   1   1.2000E-09   0.000       0.000       0.000       0.000       0.000       0.000       0.000       0.000       0.000    
   2   2.1000E-09  2.0000E-09  8.0000E-10  8.5000E-09   0.000       0.000       0.000       0.000       0.000       0.000    
   3   5.0000E-10  1.1000E-09  8.8000E-09  5.5000E-09   0.000       0.000       0.000       0.000       0.000       0.000    
   4   8.5000E-09  1.1000E-09  1.1000E-09  1.1000E-09  2.0000E-09   0.000       0.000       0.000       0.000       0.000    
   5   8.5000E-09  1.1000E-09  1.1000E-09  1.1000E-09  1.1000E-09   0.000       0.000       0.000       0.000       0.000    
   6   8.5000E-09  5.2000E-09  2.1000E-09  1.1000E-09  1.5000E-09   0.000       0.000       0.000       0.000       0.000    
   7   8.5000E-09  5.2000E-09  2.1000E-09  1.2000E-09  2.0000E-09   0.000       0.000       0.000       0.000       0.000    
   8   5.0000E-10  5.2000E-09  2.1000E-09  1.2000E-09  5.0000E-09   0.000       0.000       0.000       0.000       0.000    
   9   5.0000E-10  5.2000E-09  2.1000E-09  1.2000E-09  5.0000E-09   0.000       0.000       0.000       0.000       0.000    
  10   5.0000E-10  5.2000E-09  2.1000E-09  1.2000E-09  5.8000E-09   0.000       0.000       0.000       0.000       0.000    
  11   1.0000E-10  1.1000E-09  1.1000E-09  1.2000E-09  5.0000E-09   0.000       0.000       0.000       0.000       0.000    
  12   1.1000E-09  1.1000E-09  1.1000E-09  1.1000E-09  2.0000E-09   0.000       0.000       0.000       0.000       0.000    
  13   1.1000E-09  2.2000E-09  2.2000E-09  2.1000E-09  1.0000E-09   0.000       0.000       0.000       0.000       0.000    
  14   2.0000E-10  5.5000E-09  5.5000E-09  5.2000E-09  1.0000E-09   0.000       0.000       0.000       0.000       0.000    
  15    0.000      8.8000E-09  8.8000E-09   0.000       0.000       0.000       0.000       0.000       0.000       0.000    

                  ET RATE =  2.500000E-08

 USING ET EXTINCTION DEPTH FROM PREVIOUS STRESS PERIOD. CURRENT PERIOD IS:       5

 USING EXTINCTION WATER CONTENT FROM PREVIOUS STRESS PERIOD. CURRENT PERIOD IS:       5

 USING AIR ENTRY PRESSURE FROM PREVIOUS STRESS PERIOD. CURRENT PERIOD IS:       5

 USING ROOT PRESSURE HEAD FROM PREVIOUS STRESS PERIOD. CURRENT PERIOD IS:       5

 USING ROOT ACTIVITY FROM PREVIOUS STRESS PERIOD. CURRENT PERIOD IS:       5

 PROCESSING AG STRESS PERIOD DATA

 READING AG STRESS PERIOD DATA

 READING IRRIGATION WELL

 END PROCESSING AG STRESS PERIOD DATA OPTIONS
 
 SOLVING FOR HEAD 
                                                   Max.-Head-Change                         Max.-Flux-Residual
  Residual-Control   Outer-Iter.   Inner-Iter.     Column Row Layer    Maximum-Head-Change  Column Row Layer    Maximum-Flux-Residual          L2-NORM 
          0                 1           2             4   13     1      -0.1617896694E-01       4   13    1        -0.9304126800E+00      0.1617913790E+01
          0                 2           2             4   13     1       0.1560624616E-02       4   13    1         0.9227662287E-01      0.1578028659E+00
          0                 3           1             4   13     1      -0.1050424418E-03       4   13    1        -0.6385862282E-02      0.1067101965E-01
          0                 4           1             4   13     1       0.4095893142E-05       4   13    1         0.2560285566E-03      0.4117152307E-03

    ------------------------------------------------
       NWT REQUIRED            4 OUTER ITERATIONS 
       AND A TOTAL OF          6 INNER ITERATIONS.
    ------------------------------------------------

 NO OUTPUT CONTROL FOR STRESS PERIOD    5   TIME STEP    1
 
 SOLVING FOR HEAD 
                                                   Max.-Head-Change                         Max.-Flux-Residual
  Residual-Control   Outer-Iter.   Inner-Iter.     Column Row Layer    Maximum-Head-Change  Column Row Layer    Maximum-Flux-Residual          L2-NORM 
          0                 1           2             4   13     1      -0.1462700766E-01       4   13    1        -0.8408200695E+00      0.1615550760E+01
          0                 2           2             4   13     1       0.1410824548E-02       4   13    1         0.8338513914E-01      0.1570197410E+00
          0                 3           2             4    7     1      -0.1311123999E-03       4    8    1        -0.7422145205E-02      0.1543355098E-01
          0                 4           1             4    8     1      -0.1017588193E-03       4    7    1        -0.5771382683E-02      0.8249290433E-02
          0                 5           1             4    8     1      -0.9202314263E-04       4    7    1        -0.5218626522E-02      0.7541313286E-02

    ------------------------------------------------
       NWT REQUIRED            5 OUTER ITERATIONS 
       AND A TOTAL OF          8 INNER ITERATIONS.
    ------------------------------------------------

 OUTPUT CONTROL FOR STRESS PERIOD    5   TIME STEP    2
    PRINT BUDGET
    SAVE BUDGET
 UBDSV1 SAVING "         STORAGE" ON UNIT 102 AT TIME STEP  2, STRESS PERIOD   5
 UBDSV2 SAVING "   CONSTANT HEAD" ON UNIT 102 AT TIME STEP  2, STRESS PERIOD   5
 UBDSV1 SAVING "FLOW RIGHT FACE " ON UNIT 102 AT TIME STEP  2, STRESS PERIOD   5
 UBDSV1 SAVING "FLOW FRONT FACE " ON UNIT 102 AT TIME STEP  2, STRESS PERIOD   5

  HEAD DEP BOUNDS   PERIOD    5   STEP     2
 BOUNDARY      1   LAYER   1   ROW    13   COL     1   RATE   -0.296896    
 BOUNDARY      2   LAYER   1   ROW    14   COL     9   RATE    0.285471    



 STREAM LISTING     PERIOD      5   STEP        2

 LAYER ROW COL. STREAM  RCH.  FLOW INTO     FLOW TO   FLOW OUT OF   OVRLND.     DIRECT     STREAM       STREAM     STREAM     STREAM   STREAMBED  STREAMBED
                SEG.NO.  NO.  STRM. RCH.    AQUIFER    STRM. RCH.    RUNOFF     PRECIP       ET          HEAD       DEPTH      WIDTH   CONDCTNC.   GRADIENT

   1    1    1     1     1    2.8000E+01  2.5860E-01   2.7741E+01  0.000E+00  0.000E+00  0.000E+00  1.09427E+03  1.221E+00  1.361E+01  6.126E-02  1.407E+00
   1    2    2     1     2    2.7741E+01  4.0002E-01   2.7341E+01  0.000E+00  0.000E+00  0.000E+00  1.08928E+03  1.217E+00  1.355E+01  9.487E-02  1.406E+00
   1    3    3     1     3    2.7341E+01  3.4070E-01   2.7001E+01  0.000E+00  0.000E+00  0.000E+00  1.08363E+03  1.212E+00  1.348E+01  8.090E-02  1.404E+00
   1    3    4     1     4    2.7001E+01  3.1335E-01   2.6687E+01  0.000E+00  0.000E+00  0.000E+00  1.07861E+03  1.207E+00  1.342E+01  7.448E-02  1.402E+00
   1    4    5     2     1    2.4687E+01  3.2711E-01   2.4360E+01  0.000E+00  0.000E+00  0.000E+00  1.07313E+03  1.194E+00  1.200E+01  7.800E-02  1.398E+00
   1    5    6     2     2    2.4360E+01  2.5111E-01   2.4109E+01  0.000E+00  0.000E+00  0.000E+00  1.06769E+03  1.185E+00  1.200E+01  6.000E-02  1.395E+00
   1    6    6     2     3    2.4109E+01  2.5067E-01   2.3858E+01  0.000E+00  0.000E+00  0.000E+00  1.06297E+03  1.178E+00  1.200E+01  6.000E-02  1.393E+00
   1    7    6     2     4    2.3858E+01  2.5023E-01   2.3608E+01  0.000E+00  0.000E+00  0.000E+00  1.05825E+03  1.170E+00  1.200E+01  6.000E-02  1.390E+00
   1    8    6     2     5    2.3608E+01  2.4978E-01   2.3358E+01  0.000E+00  0.000E+00  0.000E+00  1.05352E+03  1.163E+00  1.200E+01  6.000E-02  1.388E+00
   1    3    5     3     1    2.0000E+00  2.8252E-01   1.7175E+00  0.000E+00  0.000E+00  0.000E+00  1.07555E+03  1.909E+00  9.636E+00  7.227E-02  1.955E+00
   1    3    6     3     2    1.7175E+00  2.4905E-01   1.4684E+00  0.000E+00  0.000E+00  0.000E+00  1.07264E+03  1.727E+00  8.909E+00  6.682E-02  1.864E+00
   1    3    7     3     3    1.4684E+00  1.9718E-01   1.2712E+00  0.000E+00  0.000E+00  0.000E+00  1.06987E+03  1.555E+00  8.218E+00  5.547E-02  1.777E+00
   1    4    8     3     4    1.2712E+00  2.2567E-01   1.0456E+00  0.000E+00  0.000E+00  0.000E+00  1.06682E+03  1.364E+00  7.455E+00  6.709E-02  1.682E+00
   1    5    8     3     5    1.0456E+00  1.5790E-01   8.8768E-01  0.000E+00  0.000E+00  0.000E+00  1.06362E+03  1.164E+00  6.655E+00  4.991E-02  1.582E+00
   1    6    8     3     6    8.8768E-01  5.5980E-02   8.3170E-01  0.000E+00  0.000E+00  0.000E+00  1.06158E+03  1.036E+00  6.145E+00  1.844E-02  1.518E+00
   1    5   10     4     1    1.0000E+01  9.0919E-02   9.9091E+00  0.000E+00  0.000E+00  0.000E+00  1.07836E+03  6.368E-01  1.000E+01  2.500E-02  1.212E+00
   1    5    9     4     2    9.9091E+00  1.8158E-01   9.7275E+00  0.000E+00  0.000E+00  0.000E+00  1.07154E+03  6.315E-01  1.000E+01  5.000E-02  1.211E+00
   1    6    8     4     3    9.7275E+00  1.2689E-01   9.6006E+00  0.000E+00  0.000E+00  0.000E+00  1.06381E+03  6.256E-01  1.000E+01  3.500E-02  1.209E+00
   1    6    8     5     1    1.0432E+01  2.2686E-01   1.0205E+01  0.000E+00  0.000E+00  0.000E+00  1.05868E+03  6.790E-01  1.542E+01  6.166E-02  1.226E+00
   1    7    7     5     2    1.0205E+01  2.7894E-01   9.9265E+00  0.000E+00  0.000E+00  0.000E+00  1.05417E+03  6.732E-01  1.519E+01  7.594E-02  1.224E+00
   1    8    7     5     3    9.9265E+00  1.9221E-01   9.7343E+00  0.000E+00  0.000E+00  0.000E+00  1.04992E+03  6.676E-01  1.497E+01  5.241E-02  1.223E+00
   1    8    6     5     4    9.7343E+00  1.3577E-01   9.5985E+00  0.000E+00  0.000E+00  0.000E+00  1.04691E+03  6.637E-01  1.482E+01  3.706E-02  1.221E+00
   1    9    6     6     1    3.2957E+01  2.6627E-01   3.2691E+01  0.000E+00  0.000E+00  0.000E+00  1.04417E+03  1.438E+00  1.200E+01  6.000E-02  1.479E+00
   1   10    7     6     2    3.2691E+01  2.6584E-01   3.2425E+01  0.000E+00  0.000E+00  0.000E+00  1.03961E+03  1.431E+00  1.200E+01  6.000E-02  1.477E+00
   1   11    7     6     3    3.2425E+01  2.6542E-01   3.2159E+01  0.000E+00  0.000E+00  0.000E+00  1.03506E+03  1.424E+00  1.200E+01  6.000E-02  1.475E+00
   1   12    7     6     4    3.2159E+01  2.6500E-01   3.1894E+01  0.000E+00  0.000E+00  0.000E+00  1.03051E+03  1.417E+00  1.200E+01  6.000E-02  1.472E+00
   1   13    7     6     5    3.1894E+01  3.4993E-03   3.1891E+01  0.000E+00  0.000E+00  0.000E+00  1.02732E+03  1.413E+00  1.200E+01  2.400E-02  4.860E-02
   1   14    9     7     1    1.5000E+02  1.3316E+00   1.4867E+02  0.000E+00  0.000E+00  0.000E+00  1.03987E+03  2.288E+00  5.529E+01  5.593E-01  7.936E-01
   1   13    8     7     2    1.4867E+02  1.8145E+00   1.4685E+02  0.000E+00  0.000E+00  0.000E+00  1.03478E+03  2.279E+00  5.526E+01  6.148E-01  9.838E-01
   1   13    7     7     3    1.4685E+02  1.4038E+00   1.4545E+02  0.000E+00  0.000E+00  0.000E+00  1.02969E+03  2.271E+00  5.522E+01  5.585E-01  8.379E-01
   1   13    6     8     1    1.7734E+02  8.5615E-01   1.7648E+02  0.000E+00  0.000E+00  0.000E+00  1.02487E+03  2.997E+00  4.345E+01  4.428E-01  6.445E-01
   1   13    5     8     2    1.7648E+02  9.1948E-02   1.7639E+02  0.000E+00  0.000E+00  0.000E+00  1.01862E+03  2.994E+00  4.341E+01  4.423E-01  6.929E-02
   1   13    4     8     3    1.7639E+02 -3.2624E+00   1.7966E+02  0.000E+00  0.000E+00  0.000E+00  1.01238E+03  3.004E+00  4.355E+01  4.438E+00 -2.450E-01
   1   13    3     8     4    1.7966E+02 -4.3654E+00   1.8402E+02  0.000E+00  0.000E+00  0.000E+00  1.00615E+03  3.028E+00  4.390E+01  4.474E+00 -3.253E-01
   1   13    2     8     5    1.8402E+02 -3.2975E+00   1.8732E+02  0.000E+00  0.000E+00  0.000E+00  9.99926E+02  3.051E+00  4.425E+01  4.509E+00 -2.438E-01
   1   13    1     8     6    1.8732E+02 -2.3649E+00   1.8968E+02  0.000E+00  0.000E+00  0.000E+00  9.94944E+02  3.069E+00  4.450E+01  2.721E+00 -2.897E-01



 UBDSV3 SAVING "           GW ET" ON UNIT  61 AT TIME STEP  2, STRESS PERIOD   5
 UBDSV3 SAVING "    UZF RECHARGE" ON UNIT  61 AT TIME STEP  2, STRESS PERIOD   5
 UBDSV3 SAVING " SURFACE LEAKAGE" ON UNIT  61 AT TIME STEP  2, STRESS PERIOD   5
 UBDSV3 SAVING "       HORT+DUNN" ON UNIT  61 AT TIME STEP  2, STRESS PERIOD   5
 UBDSV3 SAVING "  STORAGE CHANGE" ON UNIT  61 AT TIME STEP  2, STRESS PERIOD   5


UNSATURATED ZONE PACKAGE VOLUMETRIC BUDGET FOR  TIME STEP     2 STRESS PERIOD    5
  ------------------------------------------------------------------------------



     CUMULATIVE VOLUMES      L**3       RATES FOR THIS TIME STEP      L**3/T
     ------------------                 ------------------------

           IN:                                      IN:
           ---                                      ---
        INFILTRATION =    35714424.0662          INFILTRATION =           5.4711

          OUT:                                     OUT:
          ----                                     ----
              UZF ET =    11111482.5969                UZF ET =          25.2505
        UZF RECHARGE =       73224.0000          UZF RECHARGE =       0.0000E+00

            IN - OUT =    24529717.4692              IN - OUT =         -19.7794

          STORAGE:                                 STORAGE:
          --------                                 --------
      STORAGE CHANGE =    24529717.1978        STORAGE CHANGE =         -19.7794

 PERCENT DISCREPANCY IS DIFFERENCE BETWEEN IN-OUT MINUS CHANGE IN STORAGE
 DIVIDED BY THE AVERAGE OF IN AND OUT TIMES 100

 PERCENT DISCREPANCY =           0.00     PERCENT DISCREPANCY =           0.00






 

            AG WELLS      PERIOD    5   STEP   2
 AG WELL      1   LAYER   1   ROW     6   COL     4   RATE   -0.553127    
 AG WELL      2   LAYER   1   ROW     6   COL     5   RATE   -1.351968E-02
 AG WELL      3   LAYER   1   ROW     7   COL     4   RATE   -0.248491    
 AG WELL      4   LAYER   1   ROW     7   COL     5   RATE     0.00000    
 AG WELL      5   LAYER   1   ROW     8   COL     4   RATE   -0.248491    
 AG WELL      6   LAYER   1   ROW     8   COL     5   RATE   -3.651905E-08
 
 

        GW IRRIGATION     PERIOD    5   STEP   2
 AG WELL      1   ROW     6   COL     4   RATE    0.553127    
 AG WELL      2   ROW     6   COL     5   RATE    1.351968E-02
 AG WELL      3   ROW     7   COL     4   RATE    0.248491    
 AG WELL      4   ROW     7   COL     5   RATE     0.00000    
 AG WELL      5   ROW     8   COL     4   RATE    0.248491    
 AG WELL      6   ROW     8   COL     5   RATE    3.651906E-08
 
1
  VOLUMETRIC BUDGET FOR AGRICULTURAL FIELDS AT TIME STEP    2, STRESS PERIOD   5
  ------------------------------------------------------------------------------

     CUMULATIVE VOLUMES      L**3       RATES FOR THIS TIME STEP      L**3/T
     ------------------                 ------------------------

           IN:                                      IN:
           ---                                      ---
               AG WELLS  =       93244.7578                 AG WELLS  =           1.0636
      DIVERSION SEGMENTS =           0.0000        DIVERSION SEGMENTS =           0.0000
           GW IRRIGATION =           0.0000             GW IRRIGATION =           0.0000
           SW IRRIGATION =           0.0000             SW IRRIGATION =           0.0000
        SYSTEM LOSSES GW =           0.0000          SYSTEM LOSSES GW =           0.0000
        SYSTEM LOSSES SW =           0.0000          SYSTEM LOSSES SW =           0.0000

                TOTAL IN =       93244.7578                  TOTAL IN =           1.0636

          OUT:                                     OUT:
          ----                                     ----
               AG WELLS  =           0.0000                 AG WELLS  =           0.0000
      DIVERSION SEGMENTS =           0.0000        DIVERSION SEGMENTS =           0.0000
           GW IRRIGATION =       93244.7578             GW IRRIGATION =           1.0636
           SW IRRIGATION =           0.0000             SW IRRIGATION =           0.0000
        SYSTEM LOSSES GW =           0.0000          SYSTEM LOSSES GW =           0.0000
        SYSTEM LOSSES SW =           0.0000          SYSTEM LOSSES SW =           0.0000

               TOTAL OUT =       93244.7578                 TOTAL OUT =           1.0636

                IN - OUT =           0.0000                  IN - OUT =           0.0000

     PERCENT DISCREPANCY =           0.00         PERCENT DISCREPANCY =           0.00



1
  VOLUMETRIC BUDGET FOR ENTIRE MODEL AT END OF TIME STEP    2, STRESS PERIOD   5
  ------------------------------------------------------------------------------

     CUMULATIVE VOLUMES      L**3       RATES FOR THIS TIME STEP      L**3/T
     ------------------                 ------------------------

           IN:                                      IN:
           ---                                      ---
             STORAGE     =     4953894.0000               STORAGE     =           4.2861
       CONSTANT HEAD     =           0.0000         CONSTANT HEAD     =           0.0000
     HEAD DEP BOUNDS     =     2326674.0000       HEAD DEP BOUNDS     =           0.2855
      STREAM LEAKAGE     =   101009200.0000        STREAM LEAKAGE     =          11.6071
        UZF RECHARGE     =       73223.9531          UZF RECHARGE     =           0.0000
               GW ET     =           0.0000                 GW ET     =           0.0000
     SURFACE LEAKAGE     =           0.0000       SURFACE LEAKAGE     =           0.0000
           AG WELLS      =           0.0000             AG WELLS      =           0.0000

                TOTAL IN =   108362992.0000                  TOTAL IN =          16.1786

          OUT:                                     OUT:
          ----                                     ----
             STORAGE     =    22651444.0000               STORAGE     =           1.5274
       CONSTANT HEAD     =           0.0000         CONSTANT HEAD     =           0.0000
     HEAD DEP BOUNDS     =     2379787.2500       HEAD DEP BOUNDS     =           0.2969
      STREAM LEAKAGE     =    83243624.0000        STREAM LEAKAGE     =          13.2902
        UZF RECHARGE     =           0.0000          UZF RECHARGE     =           0.0000
               GW ET     =       6.3479E-05                 GW ET     =       6.2530E-10
     SURFACE LEAKAGE     =           0.0000       SURFACE LEAKAGE     =           0.0000
           AG WELLS      =       93244.7578             AG WELLS      =           1.0636

               TOTAL OUT =   108368104.0000                 TOTAL OUT =          16.1781

                IN - OUT =       -5112.0000                  IN - OUT =       5.3596E-04

     PERCENT DISCREPANCY =          -0.00         PERCENT DISCREPANCY =           0.00






         TIME SUMMARY AT END OF TIME STEP    2 IN STRESS PERIOD    5
                    SECONDS     MINUTES      HOURS       DAYS        YEARS
                    -----------------------------------------------------------
   TIME STEP LENGTH  87667.      1461.1      24.352      1.0147     2.77799E-03
 STRESS PERIOD TIME 1.75333E+05  2922.2      48.704      2.0293     5.55598E-03
         TOTAL TIME 8.15173E+06 1.35862E+05  2264.4      94.349     0.25831    
1
 
 SOLVING FOR HEAD 
                                                   Max.-Head-Change                         Max.-Flux-Residual
  Residual-Control   Outer-Iter.   Inner-Iter.     Column Row Layer    Maximum-Head-Change  Column Row Layer    Maximum-Flux-Residual          L2-NORM 
          0                 1           2             2   13     1      -0.1334906075E-01       4   13    1        -0.7609331252E+00      0.1782368839E+01
          0                 2           2             4   13     1       0.1277076338E-02       4   13    1         0.7545624969E-01      0.1756802721E+00
          0                 3           1             4   13     1      -0.8593452931E-04       4   13    1        -0.5220426716E-02      0.1271572020E-01

    ------------------------------------------------
       NWT REQUIRED            3 OUTER ITERATIONS 
       AND A TOTAL OF          5 INNER ITERATIONS.
    ------------------------------------------------

 OUTPUT CONTROL FOR STRESS PERIOD    5   TIME STEP    3
    PRINT BUDGET
    SAVE BUDGET
 UBDSV1 SAVING "         STORAGE" ON UNIT 102 AT TIME STEP  3, STRESS PERIOD   5
 UBDSV2 SAVING "   CONSTANT HEAD" ON UNIT 102 AT TIME STEP  3, STRESS PERIOD   5
 UBDSV1 SAVING "FLOW RIGHT FACE " ON UNIT 102 AT TIME STEP  3, STRESS PERIOD   5
 UBDSV1 SAVING "FLOW FRONT FACE " ON UNIT 102 AT TIME STEP  3, STRESS PERIOD   5

  HEAD DEP BOUNDS   PERIOD    5   STEP     3
 BOUNDARY      1   LAYER   1   ROW    13   COL     1   RATE   -0.296641    
 BOUNDARY      2   LAYER   1   ROW    14   COL     9   RATE    0.285472    



 STREAM LISTING     PERIOD      5   STEP        3

 LAYER ROW COL. STREAM  RCH.  FLOW INTO     FLOW TO   FLOW OUT OF   OVRLND.     DIRECT     STREAM       STREAM     STREAM     STREAM   STREAMBED  STREAMBED
                SEG.NO.  NO.  STRM. RCH.    AQUIFER    STRM. RCH.    RUNOFF     PRECIP       ET          HEAD       DEPTH      WIDTH   CONDCTNC.   GRADIENT

   1    1    1     1     1    2.8000E+01  2.5860E-01   2.7741E+01  0.000E+00  0.000E+00  0.000E+00  1.09427E+03  1.221E+00  1.361E+01  6.126E-02  1.407E+00
   1    2    2     1     2    2.7741E+01  4.0002E-01   2.7341E+01  0.000E+00  0.000E+00  0.000E+00  1.08928E+03  1.217E+00  1.355E+01  9.487E-02  1.406E+00
   1    3    3     1     3    2.7341E+01  3.4070E-01   2.7001E+01  0.000E+00  0.000E+00  0.000E+00  1.08363E+03  1.212E+00  1.348E+01  8.090E-02  1.404E+00
   1    3    4     1     4    2.7001E+01  3.1335E-01   2.6687E+01  0.000E+00  0.000E+00  0.000E+00  1.07861E+03  1.207E+00  1.342E+01  7.448E-02  1.402E+00
   1    4    5     2     1    2.4687E+01  3.2711E-01   2.4360E+01  0.000E+00  0.000E+00  0.000E+00  1.07313E+03  1.194E+00  1.200E+01  7.800E-02  1.398E+00
   1    5    6     2     2    2.4360E+01  2.5111E-01   2.4109E+01  0.000E+00  0.000E+00  0.000E+00  1.06769E+03  1.185E+00  1.200E+01  6.000E-02  1.395E+00
   1    6    6     2     3    2.4109E+01  2.5067E-01   2.3858E+01  0.000E+00  0.000E+00  0.000E+00  1.06297E+03  1.178E+00  1.200E+01  6.000E-02  1.393E+00
   1    7    6     2     4    2.3858E+01  2.5023E-01   2.3608E+01  0.000E+00  0.000E+00  0.000E+00  1.05825E+03  1.170E+00  1.200E+01  6.000E-02  1.390E+00
   1    8    6     2     5    2.3608E+01  2.4978E-01   2.3358E+01  0.000E+00  0.000E+00  0.000E+00  1.05352E+03  1.163E+00  1.200E+01  6.000E-02  1.388E+00
   1    3    5     3     1    2.0000E+00  2.8252E-01   1.7175E+00  0.000E+00  0.000E+00  0.000E+00  1.07555E+03  1.909E+00  9.636E+00  7.227E-02  1.955E+00
   1    3    6     3     2    1.7175E+00  2.4905E-01   1.4684E+00  0.000E+00  0.000E+00  0.000E+00  1.07264E+03  1.727E+00  8.909E+00  6.682E-02  1.864E+00
   1    3    7     3     3    1.4684E+00  1.9718E-01   1.2712E+00  0.000E+00  0.000E+00  0.000E+00  1.06987E+03  1.555E+00  8.218E+00  5.547E-02  1.777E+00
   1    4    8     3     4    1.2712E+00  2.2567E-01   1.0456E+00  0.000E+00  0.000E+00  0.000E+00  1.06682E+03  1.364E+00  7.455E+00  6.709E-02  1.682E+00
   1    5    8     3     5    1.0456E+00  1.5790E-01   8.8768E-01  0.000E+00  0.000E+00  0.000E+00  1.06362E+03  1.164E+00  6.655E+00  4.991E-02  1.582E+00
   1    6    8     3     6    8.8768E-01  5.5980E-02   8.3170E-01  0.000E+00  0.000E+00  0.000E+00  1.06158E+03  1.036E+00  6.145E+00  1.844E-02  1.518E+00
   1    5   10     4     1    1.0000E+01  9.0919E-02   9.9091E+00  0.000E+00  0.000E+00  0.000E+00  1.07836E+03  6.368E-01  1.000E+01  2.500E-02  1.212E+00
   1    5    9     4     2    9.9091E+00  1.8158E-01   9.7275E+00  0.000E+00  0.000E+00  0.000E+00  1.07154E+03  6.315E-01  1.000E+01  5.000E-02  1.211E+00
   1    6    8     4     3    9.7275E+00  1.2689E-01   9.6006E+00  0.000E+00  0.000E+00  0.000E+00  1.06381E+03  6.256E-01  1.000E+01  3.500E-02  1.209E+00
   1    6    8     5     1    1.0432E+01  2.2686E-01   1.0205E+01  0.000E+00  0.000E+00  0.000E+00  1.05868E+03  6.790E-01  1.542E+01  6.166E-02  1.226E+00
   1    7    7     5     2    1.0205E+01  2.7894E-01   9.9265E+00  0.000E+00  0.000E+00  0.000E+00  1.05417E+03  6.732E-01  1.519E+01  7.594E-02  1.224E+00
   1    8    7     5     3    9.9265E+00  1.9221E-01   9.7343E+00  0.000E+00  0.000E+00  0.000E+00  1.04992E+03  6.676E-01  1.497E+01  5.241E-02  1.223E+00
   1    8    6     5     4    9.7343E+00  1.3577E-01   9.5985E+00  0.000E+00  0.000E+00  0.000E+00  1.04691E+03  6.637E-01  1.482E+01  3.706E-02  1.221E+00
   1    9    6     6     1    3.2957E+01  2.6627E-01   3.2691E+01  0.000E+00  0.000E+00  0.000E+00  1.04417E+03  1.438E+00  1.200E+01  6.000E-02  1.479E+00
   1   10    7     6     2    3.2691E+01  2.6584E-01   3.2425E+01  0.000E+00  0.000E+00  0.000E+00  1.03961E+03  1.431E+00  1.200E+01  6.000E-02  1.477E+00
   1   11    7     6     3    3.2425E+01  2.6542E-01   3.2159E+01  0.000E+00  0.000E+00  0.000E+00  1.03506E+03  1.424E+00  1.200E+01  6.000E-02  1.475E+00
   1   12    7     6     4    3.2159E+01  2.6500E-01   3.1894E+01  0.000E+00  0.000E+00  0.000E+00  1.03051E+03  1.417E+00  1.200E+01  6.000E-02  1.472E+00
   1   13    7     6     5    3.1894E+01  3.4885E-03   3.1891E+01  0.000E+00  0.000E+00  0.000E+00  1.02732E+03  1.413E+00  1.200E+01  2.400E-02  4.845E-02
   1   14    9     7     1    1.5000E+02  1.3316E+00   1.4867E+02  0.000E+00  0.000E+00  0.000E+00  1.03987E+03  2.288E+00  5.529E+01  5.593E-01  7.936E-01
   1   13    8     7     2    1.4867E+02  1.8143E+00   1.4685E+02  0.000E+00  0.000E+00  0.000E+00  1.03478E+03  2.279E+00  5.526E+01  6.148E-01  9.837E-01
   1   13    7     7     3    1.4685E+02  1.4036E+00   1.4545E+02  0.000E+00  0.000E+00  0.000E+00  1.02969E+03  2.271E+00  5.522E+01  5.585E-01  8.377E-01
   1   13    6     8     1    1.7734E+02  8.5686E-01   1.7648E+02  0.000E+00  0.000E+00  0.000E+00  1.02487E+03  2.997E+00  4.345E+01  4.428E-01  6.451E-01
   1   13    5     8     2    1.7648E+02  9.2381E-02   1.7639E+02  0.000E+00  0.000E+00  0.000E+00  1.01862E+03  2.994E+00  4.341E+01  4.423E-01  6.962E-02
   1   13    4     8     3    1.7639E+02 -3.2095E+00   1.7960E+02  0.000E+00  0.000E+00  0.000E+00  1.01238E+03  3.004E+00  4.355E+01  4.438E+00 -2.411E-01
   1   13    3     8     4    1.7960E+02 -4.3169E+00   1.8392E+02  0.000E+00  0.000E+00  0.000E+00  1.00615E+03  3.027E+00  4.389E+01  4.473E+00 -3.217E-01
   1   13    2     8     5    1.8392E+02 -3.2452E+00   1.8716E+02  0.000E+00  0.000E+00  0.000E+00  9.99926E+02  3.051E+00  4.423E+01  4.508E+00 -2.400E-01
   1   13    1     8     6    1.8716E+02 -2.3486E+00   1.8951E+02  0.000E+00  0.000E+00  0.000E+00  9.94943E+02  3.068E+00  4.448E+01  2.720E+00 -2.878E-01



 UBDSV3 SAVING "           GW ET" ON UNIT  61 AT TIME STEP  3, STRESS PERIOD   5
 UBDSV3 SAVING "    UZF RECHARGE" ON UNIT  61 AT TIME STEP  3, STRESS PERIOD   5
 UBDSV3 SAVING " SURFACE LEAKAGE" ON UNIT  61 AT TIME STEP  3, STRESS PERIOD   5
 UBDSV3 SAVING "       HORT+DUNN" ON UNIT  61 AT TIME STEP  3, STRESS PERIOD   5
 UBDSV3 SAVING "  STORAGE CHANGE" ON UNIT  61 AT TIME STEP  3, STRESS PERIOD   5


UNSATURATED ZONE PACKAGE VOLUMETRIC BUDGET FOR  TIME STEP     3 STRESS PERIOD    5
  ------------------------------------------------------------------------------



     CUMULATIVE VOLUMES      L**3       RATES FOR THIS TIME STEP      L**3/T
     ------------------                 ------------------------

           IN:                                      IN:
           ---                                      ---
        INFILTRATION =    36306805.9729          INFILTRATION =           6.7572

          OUT:                                     OUT:
          ----                                     ----
              UZF ET =    13132799.8479                UZF ET =          23.0569
        UZF RECHARGE =       73224.0000          UZF RECHARGE =       0.0000E+00

            IN - OUT =    23100782.1250              IN - OUT =         -16.2996

          STORAGE:                                 STORAGE:
          --------                                 --------
      STORAGE CHANGE =    23100781.8144        STORAGE CHANGE =         -16.2996

 PERCENT DISCREPANCY IS DIFFERENCE BETWEEN IN-OUT MINUS CHANGE IN STORAGE
 DIVIDED BY THE AVERAGE OF IN AND OUT TIMES 100

 PERCENT DISCREPANCY =           0.00     PERCENT DISCREPANCY =           0.00






 

            AG WELLS      PERIOD    5   STEP   3
 AG WELL      1   LAYER   1   ROW     6   COL     4   RATE   -0.561400    
 AG WELL      2   LAYER   1   ROW     6   COL     5   RATE   -0.587500    
 AG WELL      3   LAYER   1   ROW     7   COL     4   RATE   -0.595000    
 AG WELL      4   LAYER   1   ROW     7   COL     5   RATE   -1.080777E-02
 AG WELL      5   LAYER   1   ROW     8   COL     4   RATE   -0.595000    
 AG WELL      6   LAYER   1   ROW     8   COL     5   RATE   -2.191143E-08
 
 

        GW IRRIGATION     PERIOD    5   STEP   3
 AG WELL      1   ROW     6   COL     4   RATE    0.561400    
 AG WELL      2   ROW     6   COL     5   RATE    0.587500    
 AG WELL      3   ROW     7   COL     4   RATE    0.595000    
 AG WELL      4   ROW     7   COL     5   RATE    1.080777E-02
 AG WELL      5   ROW     8   COL     4   RATE    0.595000    
 AG WELL      6   ROW     8   COL     5   RATE    2.191143E-08
 
1
  VOLUMETRIC BUDGET FOR AGRICULTURAL FIELDS AT TIME STEP    3, STRESS PERIOD   5
  ------------------------------------------------------------------------------

     CUMULATIVE VOLUMES      L**3       RATES FOR THIS TIME STEP      L**3/T
     ------------------                 ------------------------

           IN:                                      IN:
           ---                                      ---
               AG WELLS  =      299235.8438                 AG WELLS  =           2.3497
      DIVERSION SEGMENTS =           0.0000        DIVERSION SEGMENTS =           0.0000
           GW IRRIGATION =           0.0000             GW IRRIGATION =           0.0000
           SW IRRIGATION =           0.0000             SW IRRIGATION =           0.0000
        SYSTEM LOSSES GW =           0.0000          SYSTEM LOSSES GW =           0.0000
        SYSTEM LOSSES SW =           0.0000          SYSTEM LOSSES SW =           0.0000

                TOTAL IN =      299235.8438                  TOTAL IN =           2.3497

          OUT:                                     OUT:
          ----                                     ----
               AG WELLS  =           0.0000                 AG WELLS  =           0.0000
      DIVERSION SEGMENTS =           0.0000        DIVERSION SEGMENTS =           0.0000
           GW IRRIGATION =      299235.8438             GW IRRIGATION =           2.3497
           SW IRRIGATION =           0.0000             SW IRRIGATION =           0.0000
        SYSTEM LOSSES GW =           0.0000          SYSTEM LOSSES GW =           0.0000
        SYSTEM LOSSES SW =           0.0000          SYSTEM LOSSES SW =           0.0000

               TOTAL OUT =      299235.8438                 TOTAL OUT =           2.3497

                IN - OUT =           0.0000                  IN - OUT =           0.0000

     PERCENT DISCREPANCY =           0.00         PERCENT DISCREPANCY =           0.00



1
  VOLUMETRIC BUDGET FOR ENTIRE MODEL AT END OF TIME STEP    3, STRESS PERIOD   5
  ------------------------------------------------------------------------------

     CUMULATIVE VOLUMES      L**3       RATES FOR THIS TIME STEP      L**3/T
     ------------------                 ------------------------

           IN:                                      IN:
           ---                                      ---
             STORAGE     =     5420194.5000               STORAGE     =           5.3190
       CONSTANT HEAD     =           0.0000         CONSTANT HEAD     =           0.0000
     HEAD DEP BOUNDS     =     2351700.5000       HEAD DEP BOUNDS     =           0.2855
      STREAM LEAKAGE     =   102026816.0000        STREAM LEAKAGE     =          11.6078
        UZF RECHARGE     =       73223.9531          UZF RECHARGE     =           0.0000
               GW ET     =           0.0000                 GW ET     =           0.0000
     SURFACE LEAKAGE     =           0.0000       SURFACE LEAKAGE     =           0.0000
           AG WELLS      =           0.0000             AG WELLS      =           0.0000

                TOTAL IN =   109871936.0000                  TOTAL IN =          17.2123

          OUT:                                     OUT:
          ----                                     ----
             STORAGE     =    22777916.0000               STORAGE     =           1.4427
       CONSTANT HEAD     =           0.0000         CONSTANT HEAD     =           0.0000
     HEAD DEP BOUNDS     =     2405792.7500       HEAD DEP BOUNDS     =           0.2966
      STREAM LEAKAGE     =    84393832.0000        STREAM LEAKAGE     =          13.1202
        UZF RECHARGE     =           0.0000          UZF RECHARGE     =           0.0000
               GW ET     =         138.9239                 GW ET     =       1.5847E-03
     SURFACE LEAKAGE     =           0.0000       SURFACE LEAKAGE     =           0.0000
           AG WELLS      =      299235.8438             AG WELLS      =           2.3497

               TOTAL OUT =   109876904.0000                 TOTAL OUT =          17.2108

                IN - OUT =       -4968.0000                  IN - OUT =       1.5125E-03

     PERCENT DISCREPANCY =          -0.00         PERCENT DISCREPANCY =           0.01






         TIME SUMMARY AT END OF TIME STEP    3 IN STRESS PERIOD    5
                    SECONDS     MINUTES      HOURS       DAYS        YEARS
                    -----------------------------------------------------------
   TIME STEP LENGTH  87667.      1461.1      24.352      1.0147     2.77799E-03
 STRESS PERIOD TIME 2.63000E+05  4383.3      73.056      3.0440     8.33397E-03
         TOTAL TIME 8.23939E+06 1.37323E+05  2288.7      95.363     0.26109    
1
 
 SOLVING FOR HEAD 
                                                   Max.-Head-Change                         Max.-Flux-Residual
  Residual-Control   Outer-Iter.   Inner-Iter.     Column Row Layer    Maximum-Head-Change  Column Row Layer    Maximum-Flux-Residual          L2-NORM 
          0                 1           2             4   13     1      -0.1375174619E-01       4   13    1        -0.8039313332E+00      0.1866418830E+01
          0                 2           2             4   13     1       0.1326424330E-02       4   13    1         0.7972749869E-01      0.1840722823E+00
          0                 3           1             4   13     1      -0.8927316863E-04       4   13    1        -0.5516991612E-02      0.1264695162E-01

    ------------------------------------------------
       NWT REQUIRED            3 OUTER ITERATIONS 
       AND A TOTAL OF          5 INNER ITERATIONS.
    ------------------------------------------------

 OUTPUT CONTROL FOR STRESS PERIOD    5   TIME STEP    4
    PRINT BUDGET
    SAVE BUDGET
 UBDSV1 SAVING "         STORAGE" ON UNIT 102 AT TIME STEP  4, STRESS PERIOD   5
 UBDSV2 SAVING "   CONSTANT HEAD" ON UNIT 102 AT TIME STEP  4, STRESS PERIOD   5
 UBDSV1 SAVING "FLOW RIGHT FACE " ON UNIT 102 AT TIME STEP  4, STRESS PERIOD   5
 UBDSV1 SAVING "FLOW FRONT FACE " ON UNIT 102 AT TIME STEP  4, STRESS PERIOD   5

  HEAD DEP BOUNDS   PERIOD    5   STEP     4
 BOUNDARY      1   LAYER   1   ROW    13   COL     1   RATE   -0.296396    
 BOUNDARY      2   LAYER   1   ROW    14   COL     9   RATE    0.285473    



 STREAM LISTING     PERIOD      5   STEP        4

 LAYER ROW COL. STREAM  RCH.  FLOW INTO     FLOW TO   FLOW OUT OF   OVRLND.     DIRECT     STREAM       STREAM     STREAM     STREAM   STREAMBED  STREAMBED
                SEG.NO.  NO.  STRM. RCH.    AQUIFER    STRM. RCH.    RUNOFF     PRECIP       ET          HEAD       DEPTH      WIDTH   CONDCTNC.   GRADIENT

   1    1    1     1     1    2.8000E+01  2.5860E-01   2.7741E+01  0.000E+00  0.000E+00  0.000E+00  1.09427E+03  1.221E+00  1.361E+01  6.126E-02  1.407E+00
   1    2    2     1     2    2.7741E+01  4.0002E-01   2.7341E+01  0.000E+00  0.000E+00  0.000E+00  1.08928E+03  1.217E+00  1.355E+01  9.487E-02  1.406E+00
   1    3    3     1     3    2.7341E+01  3.4070E-01   2.7001E+01  0.000E+00  0.000E+00  0.000E+00  1.08363E+03  1.212E+00  1.348E+01  8.090E-02  1.404E+00
   1    3    4     1     4    2.7001E+01  3.1335E-01   2.6687E+01  0.000E+00  0.000E+00  0.000E+00  1.07861E+03  1.207E+00  1.342E+01  7.448E-02  1.402E+00
   1    4    5     2     1    2.4687E+01  3.2711E-01   2.4360E+01  0.000E+00  0.000E+00  0.000E+00  1.07313E+03  1.194E+00  1.200E+01  7.800E-02  1.398E+00
   1    5    6     2     2    2.4360E+01  2.5111E-01   2.4109E+01  0.000E+00  0.000E+00  0.000E+00  1.06769E+03  1.185E+00  1.200E+01  6.000E-02  1.395E+00
   1    6    6     2     3    2.4109E+01  2.5067E-01   2.3858E+01  0.000E+00  0.000E+00  0.000E+00  1.06297E+03  1.178E+00  1.200E+01  6.000E-02  1.393E+00
   1    7    6     2     4    2.3858E+01  2.5023E-01   2.3608E+01  0.000E+00  0.000E+00  0.000E+00  1.05825E+03  1.170E+00  1.200E+01  6.000E-02  1.390E+00
   1    8    6     2     5    2.3608E+01  2.4978E-01   2.3358E+01  0.000E+00  0.000E+00  0.000E+00  1.05352E+03  1.163E+00  1.200E+01  6.000E-02  1.388E+00
   1    3    5     3     1    2.0000E+00  2.8252E-01   1.7175E+00  0.000E+00  0.000E+00  0.000E+00  1.07555E+03  1.909E+00  9.636E+00  7.227E-02  1.955E+00
   1    3    6     3     2    1.7175E+00  2.4905E-01   1.4684E+00  0.000E+00  0.000E+00  0.000E+00  1.07264E+03  1.727E+00  8.909E+00  6.682E-02  1.864E+00
   1    3    7     3     3    1.4684E+00  1.9718E-01   1.2712E+00  0.000E+00  0.000E+00  0.000E+00  1.06987E+03  1.555E+00  8.218E+00  5.547E-02  1.777E+00
   1    4    8     3     4    1.2712E+00  2.2567E-01   1.0456E+00  0.000E+00  0.000E+00  0.000E+00  1.06682E+03  1.364E+00  7.455E+00  6.709E-02  1.682E+00
   1    5    8     3     5    1.0456E+00  1.5790E-01   8.8768E-01  0.000E+00  0.000E+00  0.000E+00  1.06362E+03  1.164E+00  6.655E+00  4.991E-02  1.582E+00
   1    6    8     3     6    8.8768E-01  5.5980E-02   8.3170E-01  0.000E+00  0.000E+00  0.000E+00  1.06158E+03  1.036E+00  6.145E+00  1.844E-02  1.518E+00
   1    5   10     4     1    1.0000E+01  9.0919E-02   9.9091E+00  0.000E+00  0.000E+00  0.000E+00  1.07836E+03  6.368E-01  1.000E+01  2.500E-02  1.212E+00
   1    5    9     4     2    9.9091E+00  1.8158E-01   9.7275E+00  0.000E+00  0.000E+00  0.000E+00  1.07154E+03  6.315E-01  1.000E+01  5.000E-02  1.211E+00
   1    6    8     4     3    9.7275E+00  1.2689E-01   9.6006E+00  0.000E+00  0.000E+00  0.000E+00  1.06381E+03  6.256E-01  1.000E+01  3.500E-02  1.209E+00
   1    6    8     5     1    1.0432E+01  2.2686E-01   1.0205E+01  0.000E+00  0.000E+00  0.000E+00  1.05868E+03  6.790E-01  1.542E+01  6.166E-02  1.226E+00
   1    7    7     5     2    1.0205E+01  2.7894E-01   9.9265E+00  0.000E+00  0.000E+00  0.000E+00  1.05417E+03  6.732E-01  1.519E+01  7.594E-02  1.224E+00
   1    8    7     5     3    9.9265E+00  1.9221E-01   9.7343E+00  0.000E+00  0.000E+00  0.000E+00  1.04992E+03  6.676E-01  1.497E+01  5.241E-02  1.223E+00
   1    8    6     5     4    9.7343E+00  1.3577E-01   9.5985E+00  0.000E+00  0.000E+00  0.000E+00  1.04691E+03  6.637E-01  1.482E+01  3.706E-02  1.221E+00
   1    9    6     6     1    3.2957E+01  2.6627E-01   3.2691E+01  0.000E+00  0.000E+00  0.000E+00  1.04417E+03  1.438E+00  1.200E+01  6.000E-02  1.479E+00
   1   10    7     6     2    3.2691E+01  2.6584E-01   3.2425E+01  0.000E+00  0.000E+00  0.000E+00  1.03961E+03  1.431E+00  1.200E+01  6.000E-02  1.477E+00
   1   11    7     6     3    3.2425E+01  2.6542E-01   3.2159E+01  0.000E+00  0.000E+00  0.000E+00  1.03506E+03  1.424E+00  1.200E+01  6.000E-02  1.475E+00
   1   12    7     6     4    3.2159E+01  2.6500E-01   3.1894E+01  0.000E+00  0.000E+00  0.000E+00  1.03051E+03  1.417E+00  1.200E+01  6.000E-02  1.472E+00
   1   13    7     6     5    3.1894E+01  3.4784E-03   3.1891E+01  0.000E+00  0.000E+00  0.000E+00  1.02732E+03  1.413E+00  1.200E+01  2.400E-02  4.831E-02
   1   14    9     7     1    1.5000E+02  1.3316E+00   1.4867E+02  0.000E+00  0.000E+00  0.000E+00  1.03987E+03  2.288E+00  5.529E+01  5.593E-01  7.936E-01
   1   13    8     7     2    1.4867E+02  1.8142E+00   1.4685E+02  0.000E+00  0.000E+00  0.000E+00  1.03478E+03  2.279E+00  5.526E+01  6.148E-01  9.836E-01
   1   13    7     7     3    1.4685E+02  1.4033E+00   1.4545E+02  0.000E+00  0.000E+00  0.000E+00  1.02969E+03  2.271E+00  5.522E+01  5.585E-01  8.376E-01
   1   13    6     8     1    1.7734E+02  8.5754E-01   1.7648E+02  0.000E+00  0.000E+00  0.000E+00  1.02487E+03  2.997E+00  4.345E+01  4.428E-01  6.456E-01
   1   13    5     8     2    1.7648E+02  9.2862E-02   1.7639E+02  0.000E+00  0.000E+00  0.000E+00  1.01862E+03  2.994E+00  4.341E+01  4.423E-01  6.998E-02
   1   13    4     8     3    1.7639E+02 -3.1546E+00   1.7955E+02  0.000E+00  0.000E+00  0.000E+00  1.01238E+03  3.003E+00  4.355E+01  4.438E+00 -2.369E-01
   1   13    3     8     4    1.7955E+02 -4.2641E+00   1.8381E+02  0.000E+00  0.000E+00  0.000E+00  1.00615E+03  3.027E+00  4.389E+01  4.472E+00 -3.178E-01
   1   13    2     8     5    1.8381E+02 -3.1972E+00   1.8701E+02  0.000E+00  0.000E+00  0.000E+00  9.99925E+02  3.050E+00  4.422E+01  4.506E+00 -2.365E-01
   1   13    1     8     6    1.8701E+02 -2.3330E+00   1.8934E+02  0.000E+00  0.000E+00  0.000E+00  9.94942E+02  3.067E+00  4.447E+01  2.719E+00 -2.860E-01



 UBDSV3 SAVING "           GW ET" ON UNIT  61 AT TIME STEP  4, STRESS PERIOD   5
 UBDSV3 SAVING "    UZF RECHARGE" ON UNIT  61 AT TIME STEP  4, STRESS PERIOD   5
 UBDSV3 SAVING " SURFACE LEAKAGE" ON UNIT  61 AT TIME STEP  4, STRESS PERIOD   5
 UBDSV3 SAVING "       HORT+DUNN" ON UNIT  61 AT TIME STEP  4, STRESS PERIOD   5
 UBDSV3 SAVING "  STORAGE CHANGE" ON UNIT  61 AT TIME STEP  4, STRESS PERIOD   5


UNSATURATED ZONE PACKAGE VOLUMETRIC BUDGET FOR  TIME STEP     4 STRESS PERIOD    5
  ------------------------------------------------------------------------------



     CUMULATIVE VOLUMES      L**3       RATES FOR THIS TIME STEP      L**3/T
     ------------------                 ------------------------

           IN:                                      IN:
           ---                                      ---
        INFILTRATION =    36945965.9690          INFILTRATION =           7.2908

          OUT:                                     OUT:
          ----                                     ----
              UZF ET =    14557991.7981                UZF ET =          16.2569
        UZF RECHARGE =       73224.0000          UZF RECHARGE =       0.0000E+00

            IN - OUT =    22314750.1709              IN - OUT =          -8.9661

          STORAGE:                                 STORAGE:
          --------                                 --------
      STORAGE CHANGE =    22314749.8595        STORAGE CHANGE =          -8.9661

 PERCENT DISCREPANCY IS DIFFERENCE BETWEEN IN-OUT MINUS CHANGE IN STORAGE
 DIVIDED BY THE AVERAGE OF IN AND OUT TIMES 100

 PERCENT DISCREPANCY =           0.00     PERCENT DISCREPANCY =           0.00






 

            AG WELLS      PERIOD    5   STEP   4
 AG WELL      1   LAYER   1   ROW     6   COL     4   RATE   -0.571227    
 AG WELL      2   LAYER   1   ROW     6   COL     5   RATE   -0.557745    
 AG WELL      3   LAYER   1   ROW     7   COL     4   RATE   -0.589664    
 AG WELL      4   LAYER   1   ROW     7   COL     5   RATE   -0.575000    
 AG WELL      5   LAYER   1   ROW     8   COL     4   RATE   -0.589664    
 AG WELL      6   LAYER   1   ROW     8   COL     5   RATE     0.00000    
 
 

        GW IRRIGATION     PERIOD    5   STEP   4
 AG WELL      1   ROW     6   COL     4   RATE    0.571227    
 AG WELL      2   ROW     6   COL     5   RATE    0.557745    
 AG WELL      3   ROW     7   COL     4   RATE    0.589664    
 AG WELL      4   ROW     7   COL     5   RATE    0.575000    
 AG WELL      5   ROW     8   COL     4   RATE    0.589664    
 AG WELL      6   ROW     8   COL     5   RATE     0.00000    
 
1
  VOLUMETRIC BUDGET FOR AGRICULTURAL FIELDS AT TIME STEP    4, STRESS PERIOD   5
  ------------------------------------------------------------------------------

     CUMULATIVE VOLUMES      L**3       RATES FOR THIS TIME STEP      L**3/T
     ------------------                 ------------------------

           IN:                                      IN:
           ---                                      ---
               AG WELLS  =      552005.0000                 AG WELLS  =           2.8833
      DIVERSION SEGMENTS =           0.0000        DIVERSION SEGMENTS =           0.0000
           GW IRRIGATION =           0.0000             GW IRRIGATION =           0.0000
           SW IRRIGATION =           0.0000             SW IRRIGATION =           0.0000
        SYSTEM LOSSES GW =           0.0000          SYSTEM LOSSES GW =           0.0000
        SYSTEM LOSSES SW =           0.0000          SYSTEM LOSSES SW =           0.0000

                TOTAL IN =      552005.0000                  TOTAL IN =           2.8833

          OUT:                                     OUT:
          ----                                     ----
               AG WELLS  =           0.0000                 AG WELLS  =           0.0000
      DIVERSION SEGMENTS =           0.0000        DIVERSION SEGMENTS =           0.0000
           GW IRRIGATION =      552005.0000             GW IRRIGATION =           2.8833
           SW IRRIGATION =           0.0000             SW IRRIGATION =           0.0000
        SYSTEM LOSSES GW =           0.0000          SYSTEM LOSSES GW =           0.0000
        SYSTEM LOSSES SW =           0.0000          SYSTEM LOSSES SW =           0.0000

               TOTAL OUT =      552005.0000                 TOTAL OUT =           2.8833

                IN - OUT =           0.0000                  IN - OUT =           0.0000

     PERCENT DISCREPANCY =           0.00         PERCENT DISCREPANCY =           0.00



1
  VOLUMETRIC BUDGET FOR ENTIRE MODEL AT END OF TIME STEP    4, STRESS PERIOD   5
  ------------------------------------------------------------------------------

     CUMULATIVE VOLUMES      L**3       RATES FOR THIS TIME STEP      L**3/T
     ------------------                 ------------------------

           IN:                                      IN:
           ---                                      ---
             STORAGE     =     5932237.0000               STORAGE     =           5.8408
       CONSTANT HEAD     =           0.0000         CONSTANT HEAD     =           0.0000
     HEAD DEP BOUNDS     =     2376727.0000       HEAD DEP BOUNDS     =           0.2855
      STREAM LEAKAGE     =   103044504.0000        STREAM LEAKAGE     =          11.6086
        UZF RECHARGE     =       73223.9531          UZF RECHARGE     =           0.0000
               GW ET     =           0.0000                 GW ET     =           0.0000
     SURFACE LEAKAGE     =           0.0000       SURFACE LEAKAGE     =           0.0000
           AG WELLS      =           0.0000             AG WELLS      =           0.0000

                TOTAL IN =   111426696.0000                  TOTAL IN =          17.7348

          OUT:                                     OUT:
          ----                                     ----
             STORAGE     =    22899164.0000               STORAGE     =           1.3831
       CONSTANT HEAD     =           0.0000         CONSTANT HEAD     =           0.0000
     HEAD DEP BOUNDS     =     2431776.7500       HEAD DEP BOUNDS     =           0.2964
      STREAM LEAKAGE     =    85529008.0000        STREAM LEAKAGE     =          12.9488
        UZF RECHARGE     =           0.0000          UZF RECHARGE     =           0.0000
               GW ET     =       19599.9141                 GW ET     =           0.2220
     SURFACE LEAKAGE     =           0.0000       SURFACE LEAKAGE     =           0.0000
           AG WELLS      =      552005.0000             AG WELLS      =           2.8833

               TOTAL OUT =   111431560.0000                 TOTAL OUT =          17.7336

                IN - OUT =       -4864.0000                  IN - OUT =       1.2856E-03

     PERCENT DISCREPANCY =          -0.00         PERCENT DISCREPANCY =           0.01






         TIME SUMMARY AT END OF TIME STEP    4 IN STRESS PERIOD    5
                    SECONDS     MINUTES      HOURS       DAYS        YEARS
                    -----------------------------------------------------------
   TIME STEP LENGTH  87667.      1461.1      24.352      1.0147     2.77799E-03
 STRESS PERIOD TIME 3.50667E+05  5844.4      97.407      4.0586     1.11120E-02
         TOTAL TIME 8.32706E+06 1.38784E+05  2313.1      96.378     0.26387    
1
 
 SOLVING FOR HEAD 
                                                   Max.-Head-Change                         Max.-Flux-Residual
  Residual-Control   Outer-Iter.   Inner-Iter.     Column Row Layer    Maximum-Head-Change  Column Row Layer    Maximum-Flux-Residual          L2-NORM 
          0                 1           2             4   13     1      -0.1222986130E-01       4   13    1        -0.7146553799E+00      0.1753355256E+01
          0                 2           2             4   13     1       0.1179530990E-02       4   13    1         0.7086768375E-01      0.1730591260E+00
          0                 3           1             4   13     1      -0.7936688093E-04       4   13    1        -0.4902658984E-02      0.1190326837E-01

    ------------------------------------------------
       NWT REQUIRED            3 OUTER ITERATIONS 
       AND A TOTAL OF          5 INNER ITERATIONS.
    ------------------------------------------------

 NO OUTPUT CONTROL FOR STRESS PERIOD    5   TIME STEP    5
 
 SOLVING FOR HEAD 
                                                   Max.-Head-Change                         Max.-Flux-Residual
  Residual-Control   Outer-Iter.   Inner-Iter.     Column Row Layer    Maximum-Head-Change  Column Row Layer    Maximum-Flux-Residual          L2-NORM 
          0                 1           2             4   13     1      -0.1088124564E-01       4   13    1        -0.6355655189E+00      0.1661756482E+01
          0                 2           2             4   13     1       0.1049383861E-02       4   13    1         0.6302012251E-01      0.1641731165E+00
          0                 3           1             4    7     1      -0.7089143995E-04       4   13    1        -0.4359397058E-02      0.1130738057E-01

    ------------------------------------------------
       NWT REQUIRED            3 OUTER ITERATIONS 
       AND A TOTAL OF          5 INNER ITERATIONS.
    ------------------------------------------------

 OUTPUT CONTROL FOR STRESS PERIOD    5   TIME STEP    6
    PRINT BUDGET
    SAVE BUDGET
 UBDSV1 SAVING "         STORAGE" ON UNIT 102 AT TIME STEP  6, STRESS PERIOD   5
 UBDSV2 SAVING "   CONSTANT HEAD" ON UNIT 102 AT TIME STEP  6, STRESS PERIOD   5
 UBDSV1 SAVING "FLOW RIGHT FACE " ON UNIT 102 AT TIME STEP  6, STRESS PERIOD   5
 UBDSV1 SAVING "FLOW FRONT FACE " ON UNIT 102 AT TIME STEP  6, STRESS PERIOD   5

  HEAD DEP BOUNDS   PERIOD    5   STEP     6
 BOUNDARY      1   LAYER   1   ROW    13   COL     1   RATE   -0.295933    
 BOUNDARY      2   LAYER   1   ROW    14   COL     9   RATE    0.285474    



 STREAM LISTING     PERIOD      5   STEP        6

 LAYER ROW COL. STREAM  RCH.  FLOW INTO     FLOW TO   FLOW OUT OF   OVRLND.     DIRECT     STREAM       STREAM     STREAM     STREAM   STREAMBED  STREAMBED
                SEG.NO.  NO.  STRM. RCH.    AQUIFER    STRM. RCH.    RUNOFF     PRECIP       ET          HEAD       DEPTH      WIDTH   CONDCTNC.   GRADIENT

   1    1    1     1     1    2.8000E+01  2.5860E-01   2.7742E+01  0.000E+00  0.000E+00  0.000E+00  1.09427E+03  1.221E+00  1.361E+01  6.126E-02  1.407E+00
   1    2    2     1     2    2.7742E+01  4.0002E-01   2.7341E+01  0.000E+00  0.000E+00  0.000E+00  1.08928E+03  1.217E+00  1.355E+01  9.487E-02  1.406E+00
   1    3    3     1     3    2.7341E+01  3.4070E-01   2.7001E+01  0.000E+00  0.000E+00  0.000E+00  1.08363E+03  1.212E+00  1.348E+01  8.090E-02  1.404E+00
   1    3    4     1     4    2.7001E+01  3.1335E-01   2.6687E+01  0.000E+00  0.000E+00  0.000E+00  1.07861E+03  1.207E+00  1.342E+01  7.448E-02  1.402E+00
   1    4    5     2     1    2.4687E+01  3.2711E-01   2.4360E+01  0.000E+00  0.000E+00  0.000E+00  1.07313E+03  1.194E+00  1.200E+01  7.800E-02  1.398E+00
   1    5    6     2     2    2.4360E+01  2.5111E-01   2.4109E+01  0.000E+00  0.000E+00  0.000E+00  1.06769E+03  1.185E+00  1.200E+01  6.000E-02  1.395E+00
   1    6    6     2     3    2.4109E+01  2.5067E-01   2.3859E+01  0.000E+00  0.000E+00  0.000E+00  1.06297E+03  1.178E+00  1.200E+01  6.000E-02  1.393E+00
   1    7    6     2     4    2.3859E+01  2.5023E-01   2.3608E+01  0.000E+00  0.000E+00  0.000E+00  1.05825E+03  1.170E+00  1.200E+01  6.000E-02  1.390E+00
   1    8    6     2     5    2.3608E+01  2.4978E-01   2.3359E+01  0.000E+00  0.000E+00  0.000E+00  1.05352E+03  1.163E+00  1.200E+01  6.000E-02  1.388E+00
   1    3    5     3     1    2.0000E+00  2.8252E-01   1.7175E+00  0.000E+00  0.000E+00  0.000E+00  1.07555E+03  1.909E+00  9.636E+00  7.227E-02  1.955E+00
   1    3    6     3     2    1.7175E+00  2.4905E-01   1.4684E+00  0.000E+00  0.000E+00  0.000E+00  1.07264E+03  1.727E+00  8.909E+00  6.682E-02  1.864E+00
   1    3    7     3     3    1.4684E+00  1.9718E-01   1.2712E+00  0.000E+00  0.000E+00  0.000E+00  1.06987E+03  1.555E+00  8.218E+00  5.547E-02  1.777E+00
   1    4    8     3     4    1.2712E+00  2.2567E-01   1.0456E+00  0.000E+00  0.000E+00  0.000E+00  1.06682E+03  1.364E+00  7.455E+00  6.709E-02  1.682E+00
   1    5    8     3     5    1.0456E+00  1.5790E-01   8.8768E-01  0.000E+00  0.000E+00  0.000E+00  1.06362E+03  1.164E+00  6.655E+00  4.991E-02  1.582E+00
   1    6    8     3     6    8.8768E-01  5.5980E-02   8.3170E-01  0.000E+00  0.000E+00  0.000E+00  1.06158E+03  1.036E+00  6.145E+00  1.844E-02  1.518E+00
   1    5   10     4     1    1.0000E+01  9.0919E-02   9.9091E+00  0.000E+00  0.000E+00  0.000E+00  1.07836E+03  6.368E-01  1.000E+01  2.500E-02  1.212E+00
   1    5    9     4     2    9.9091E+00  1.8158E-01   9.7275E+00  0.000E+00  0.000E+00  0.000E+00  1.07154E+03  6.315E-01  1.000E+01  5.000E-02  1.211E+00
   1    6    8     4     3    9.7275E+00  1.2689E-01   9.6006E+00  0.000E+00  0.000E+00  0.000E+00  1.06381E+03  6.256E-01  1.000E+01  3.500E-02  1.209E+00
   1    6    8     5     1    1.0432E+01  2.2686E-01   1.0205E+01  0.000E+00  0.000E+00  0.000E+00  1.05868E+03  6.790E-01  1.542E+01  6.166E-02  1.226E+00
   1    7    7     5     2    1.0205E+01  2.7894E-01   9.9265E+00  0.000E+00  0.000E+00  0.000E+00  1.05417E+03  6.732E-01  1.519E+01  7.594E-02  1.224E+00
   1    8    7     5     3    9.9265E+00  1.9221E-01   9.7343E+00  0.000E+00  0.000E+00  0.000E+00  1.04992E+03  6.676E-01  1.497E+01  5.241E-02  1.223E+00
   1    8    6     5     4    9.7343E+00  1.3577E-01   9.5985E+00  0.000E+00  0.000E+00  0.000E+00  1.04691E+03  6.637E-01  1.482E+01  3.706E-02  1.221E+00
   1    9    6     6     1    3.2957E+01  2.6627E-01   3.2691E+01  0.000E+00  0.000E+00  0.000E+00  1.04417E+03  1.438E+00  1.200E+01  6.000E-02  1.479E+00
   1   10    7     6     2    3.2691E+01  2.6585E-01   3.2425E+01  0.000E+00  0.000E+00  0.000E+00  1.03961E+03  1.431E+00  1.200E+01  6.000E-02  1.477E+00
   1   11    7     6     3    3.2425E+01  2.6542E-01   3.2160E+01  0.000E+00  0.000E+00  0.000E+00  1.03506E+03  1.424E+00  1.200E+01  6.000E-02  1.475E+00
   1   12    7     6     4    3.2160E+01  2.6500E-01   3.1895E+01  0.000E+00  0.000E+00  0.000E+00  1.03051E+03  1.417E+00  1.200E+01  6.000E-02  1.472E+00
   1   13    7     6     5    3.1895E+01  3.4601E-03   3.1891E+01  0.000E+00  0.000E+00  0.000E+00  1.02732E+03  1.413E+00  1.200E+01  2.400E-02  4.806E-02
   1   14    9     7     1    1.5000E+02  1.3316E+00   1.4867E+02  0.000E+00  0.000E+00  0.000E+00  1.03987E+03  2.288E+00  5.529E+01  5.593E-01  7.936E-01
   1   13    8     7     2    1.4867E+02  1.8139E+00   1.4685E+02  0.000E+00  0.000E+00  0.000E+00  1.03478E+03  2.279E+00  5.526E+01  6.148E-01  9.835E-01
   1   13    7     7     3    1.4685E+02  1.4029E+00   1.4545E+02  0.000E+00  0.000E+00  0.000E+00  1.02969E+03  2.271E+00  5.522E+01  5.585E-01  8.374E-01
   1   13    6     8     1    1.7734E+02  8.5881E-01   1.7648E+02  0.000E+00  0.000E+00  0.000E+00  1.02487E+03  2.997E+00  4.345E+01  4.428E-01  6.465E-01
   1   13    5     8     2    1.7648E+02  9.3926E-02   1.7639E+02  0.000E+00  0.000E+00  0.000E+00  1.01862E+03  2.994E+00  4.341E+01  4.423E-01  7.078E-02
   1   13    4     8     3    1.7639E+02 -3.0623E+00   1.7945E+02  0.000E+00  0.000E+00  0.000E+00  1.01238E+03  3.003E+00  4.354E+01  4.437E+00 -2.300E-01
   1   13    3     8     4    1.7945E+02 -4.1735E+00   1.8363E+02  0.000E+00  0.000E+00  0.000E+00  1.00615E+03  3.026E+00  4.387E+01  4.471E+00 -3.112E-01
   1   13    2     8     5    1.8363E+02 -3.1114E+00   1.8674E+02  0.000E+00  0.000E+00  0.000E+00  9.99923E+02  3.048E+00  4.420E+01  4.504E+00 -2.302E-01
   1   13    1     8     6    1.8674E+02 -2.3033E+00   1.8904E+02  0.000E+00  0.000E+00  0.000E+00  9.94940E+02  3.065E+00  4.444E+01  2.717E+00 -2.825E-01



 UBDSV3 SAVING "           GW ET" ON UNIT  61 AT TIME STEP  6, STRESS PERIOD   5
 UBDSV3 SAVING "    UZF RECHARGE" ON UNIT  61 AT TIME STEP  6, STRESS PERIOD   5
 UBDSV3 SAVING " SURFACE LEAKAGE" ON UNIT  61 AT TIME STEP  6, STRESS PERIOD   5
 UBDSV3 SAVING "       HORT+DUNN" ON UNIT  61 AT TIME STEP  6, STRESS PERIOD   5
 UBDSV3 SAVING "  STORAGE CHANGE" ON UNIT  61 AT TIME STEP  6, STRESS PERIOD   5


UNSATURATED ZONE PACKAGE VOLUMETRIC BUDGET FOR  TIME STEP     6 STRESS PERIOD    5
  ------------------------------------------------------------------------------



     CUMULATIVE VOLUMES      L**3       RATES FOR THIS TIME STEP      L**3/T
     ------------------                 ------------------------

           IN:                                      IN:
           ---                                      ---
        INFILTRATION =    38223981.6838          INFILTRATION =           7.2975

          OUT:                                     OUT:
          ----                                     ----
              UZF ET =    17405808.0774                UZF ET =          16.2416
        UZF RECHARGE =       73224.0000          UZF RECHARGE =       0.0000E+00

            IN - OUT =    20744949.6064              IN - OUT =          -8.9441

          STORAGE:                                 STORAGE:
          --------                                 --------
      STORAGE CHANGE =    20744949.2785        STORAGE CHANGE =          -8.9441

 PERCENT DISCREPANCY IS DIFFERENCE BETWEEN IN-OUT MINUS CHANGE IN STORAGE
 DIVIDED BY THE AVERAGE OF IN AND OUT TIMES 100

 PERCENT DISCREPANCY =           0.00     PERCENT DISCREPANCY =           0.00






 

            AG WELLS      PERIOD    5   STEP   6
 AG WELL      1   LAYER   1   ROW     6   COL     4   RATE   -0.586808    
 AG WELL      2   LAYER   1   ROW     6   COL     5   RATE   -0.567260    
 AG WELL      3   LAYER   1   ROW     7   COL     4   RATE   -0.590566    
 AG WELL      4   LAYER   1   ROW     7   COL     5   RATE   -0.554751    
 AG WELL      5   LAYER   1   ROW     8   COL     4   RATE   -0.590566    
 AG WELL      6   LAYER   1   ROW     8   COL     5   RATE     0.00000    
 
 

        GW IRRIGATION     PERIOD    5   STEP   6
 AG WELL      1   ROW     6   COL     4   RATE    0.586808    
 AG WELL      2   ROW     6   COL     5   RATE    0.567260    
 AG WELL      3   ROW     7   COL     4   RATE    0.590566    
 AG WELL      4   ROW     7   COL     5   RATE    0.554751    
 AG WELL      5   ROW     8   COL     4   RATE    0.590566    
 AG WELL      6   ROW     8   COL     5   RATE     0.00000    
 
1
  VOLUMETRIC BUDGET FOR AGRICULTURAL FIELDS AT TIME STEP    6, STRESS PERIOD   5
  ------------------------------------------------------------------------------

     CUMULATIVE VOLUMES      L**3       RATES FOR THIS TIME STEP      L**3/T
     ------------------                 ------------------------

           IN:                                      IN:
           ---                                      ---
               AG WELLS  =     1057239.1250                 AG WELLS  =           2.8900
      DIVERSION SEGMENTS =           0.0000        DIVERSION SEGMENTS =           0.0000
           GW IRRIGATION =           0.0000             GW IRRIGATION =           0.0000
           SW IRRIGATION =           0.0000             SW IRRIGATION =           0.0000
        SYSTEM LOSSES GW =           0.0000          SYSTEM LOSSES GW =           0.0000
        SYSTEM LOSSES SW =           0.0000          SYSTEM LOSSES SW =           0.0000

                TOTAL IN =     1057239.1250                  TOTAL IN =           2.8900

          OUT:                                     OUT:
          ----                                     ----
               AG WELLS  =           0.0000                 AG WELLS  =           0.0000
      DIVERSION SEGMENTS =           0.0000        DIVERSION SEGMENTS =           0.0000
           GW IRRIGATION =     1057239.1250             GW IRRIGATION =           2.8900
           SW IRRIGATION =           0.0000             SW IRRIGATION =           0.0000
        SYSTEM LOSSES GW =           0.0000          SYSTEM LOSSES GW =           0.0000
        SYSTEM LOSSES SW =           0.0000          SYSTEM LOSSES SW =           0.0000

               TOTAL OUT =     1057239.1250                 TOTAL OUT =           2.8900

                IN - OUT =           0.0000                  IN - OUT =           0.0000

     PERCENT DISCREPANCY =           0.00         PERCENT DISCREPANCY =           0.00



1
  VOLUMETRIC BUDGET FOR ENTIRE MODEL AT END OF TIME STEP    6, STRESS PERIOD   5
  ------------------------------------------------------------------------------

     CUMULATIVE VOLUMES      L**3       RATES FOR THIS TIME STEP      L**3/T
     ------------------                 ------------------------

           IN:                                      IN:
           ---                                      ---
             STORAGE     =     6896035.0000               STORAGE     =           5.3977
       CONSTANT HEAD     =           0.0000         CONSTANT HEAD     =           0.0000
     HEAD DEP BOUNDS     =     2426780.0000       HEAD DEP BOUNDS     =           0.2855
      STREAM LEAKAGE     =   105080080.0000        STREAM LEAKAGE     =          11.6102
        UZF RECHARGE     =       73223.9531          UZF RECHARGE     =           0.0000
               GW ET     =           0.0000                 GW ET     =           0.0000
     SURFACE LEAKAGE     =           0.0000       SURFACE LEAKAGE     =           0.0000
           AG WELLS      =           0.0000             AG WELLS      =           0.0000

                TOTAL IN =   114476120.0000                  TOTAL IN =          17.2934

          OUT:                                     OUT:
          ----                                     ----
             STORAGE     =    23128206.0000               STORAGE     =           1.2817
       CONSTANT HEAD     =           0.0000         CONSTANT HEAD     =           0.0000
     HEAD DEP BOUNDS     =     2483683.5000       HEAD DEP BOUNDS     =           0.2959
      STREAM LEAKAGE     =    87759528.0000        STREAM LEAKAGE     =          12.6505
        UZF RECHARGE     =           0.0000          UZF RECHARGE     =           0.0000
               GW ET     =       52114.7383                 GW ET     =           0.1741
     SURFACE LEAKAGE     =           0.0000       SURFACE LEAKAGE     =           0.0000
           AG WELLS      =     1057239.1250             AG WELLS      =           2.8900

               TOTAL OUT =   114480768.0000                 TOTAL OUT =          17.2922

                IN - OUT =       -4648.0000                  IN - OUT =       1.1883E-03

     PERCENT DISCREPANCY =          -0.00         PERCENT DISCREPANCY =           0.01






         TIME SUMMARY AT END OF TIME STEP    6 IN STRESS PERIOD    5
                    SECONDS     MINUTES      HOURS       DAYS        YEARS
                    -----------------------------------------------------------
   TIME STEP LENGTH  87667.      1461.1      24.352      1.0147     2.77799E-03
 STRESS PERIOD TIME 5.26000E+05  8766.7      146.11      6.0880     1.66679E-02
         TOTAL TIME 8.50239E+06 1.41707E+05  2361.8      98.407     0.26942    
1
 
 SOLVING FOR HEAD 
                                                   Max.-Head-Change                         Max.-Flux-Residual
  Residual-Control   Outer-Iter.   Inner-Iter.     Column Row Layer    Maximum-Head-Change  Column Row Layer    Maximum-Flux-Residual          L2-NORM 
          0                 1           2             4    7     1      -0.1061533409E-01       4   13    1        -0.5654882951E+00      0.1580237021E+01
          0                 2           2             4    7     1       0.1032567507E-02       4   13    1         0.5606843231E-01      0.1562267558E+00
          0                 3           1             4    7     1      -0.7032725679E-04       4    7    1        -0.3895233714E-02      0.1093527741E-01

    ------------------------------------------------
       NWT REQUIRED            3 OUTER ITERATIONS 
       AND A TOTAL OF          5 INNER ITERATIONS.
    ------------------------------------------------

 OUTPUT CONTROL FOR STRESS PERIOD    5   TIME STEP    7
    PRINT BUDGET
    SAVE BUDGET
 UBDSV1 SAVING "         STORAGE" ON UNIT 102 AT TIME STEP  7, STRESS PERIOD   5
 UBDSV2 SAVING "   CONSTANT HEAD" ON UNIT 102 AT TIME STEP  7, STRESS PERIOD   5
 UBDSV1 SAVING "FLOW RIGHT FACE " ON UNIT 102 AT TIME STEP  7, STRESS PERIOD   5
 UBDSV1 SAVING "FLOW FRONT FACE " ON UNIT 102 AT TIME STEP  7, STRESS PERIOD   5

  HEAD DEP BOUNDS   PERIOD    5   STEP     7
 BOUNDARY      1   LAYER   1   ROW    13   COL     1   RATE   -0.295715    
 BOUNDARY      2   LAYER   1   ROW    14   COL     9   RATE    0.285475    



 STREAM LISTING     PERIOD      5   STEP        7

 LAYER ROW COL. STREAM  RCH.  FLOW INTO     FLOW TO   FLOW OUT OF   OVRLND.     DIRECT     STREAM       STREAM     STREAM     STREAM   STREAMBED  STREAMBED
                SEG.NO.  NO.  STRM. RCH.    AQUIFER    STRM. RCH.    RUNOFF     PRECIP       ET          HEAD       DEPTH      WIDTH   CONDCTNC.   GRADIENT

   1    1    1     1     1    2.8000E+01  2.5860E-01   2.7742E+01  0.000E+00  0.000E+00  0.000E+00  1.09427E+03  1.221E+00  1.361E+01  6.126E-02  1.407E+00
   1    2    2     1     2    2.7742E+01  4.0002E-01   2.7341E+01  0.000E+00  0.000E+00  0.000E+00  1.08928E+03  1.217E+00  1.355E+01  9.487E-02  1.406E+00
   1    3    3     1     3    2.7341E+01  3.4070E-01   2.7001E+01  0.000E+00  0.000E+00  0.000E+00  1.08363E+03  1.212E+00  1.348E+01  8.090E-02  1.404E+00
   1    3    4     1     4    2.7001E+01  3.1335E-01   2.6687E+01  0.000E+00  0.000E+00  0.000E+00  1.07861E+03  1.207E+00  1.342E+01  7.448E-02  1.402E+00
   1    4    5     2     1    2.4687E+01  3.2711E-01   2.4360E+01  0.000E+00  0.000E+00  0.000E+00  1.07313E+03  1.194E+00  1.200E+01  7.800E-02  1.398E+00
   1    5    6     2     2    2.4360E+01  2.5111E-01   2.4109E+01  0.000E+00  0.000E+00  0.000E+00  1.06769E+03  1.185E+00  1.200E+01  6.000E-02  1.395E+00
   1    6    6     2     3    2.4109E+01  2.5067E-01   2.3859E+01  0.000E+00  0.000E+00  0.000E+00  1.06297E+03  1.178E+00  1.200E+01  6.000E-02  1.393E+00
   1    7    6     2     4    2.3859E+01  2.5023E-01   2.3608E+01  0.000E+00  0.000E+00  0.000E+00  1.05825E+03  1.170E+00  1.200E+01  6.000E-02  1.390E+00
   1    8    6     2     5    2.3608E+01  2.4978E-01   2.3359E+01  0.000E+00  0.000E+00  0.000E+00  1.05352E+03  1.163E+00  1.200E+01  6.000E-02  1.388E+00
   1    3    5     3     1    2.0000E+00  2.8252E-01   1.7175E+00  0.000E+00  0.000E+00  0.000E+00  1.07555E+03  1.909E+00  9.636E+00  7.227E-02  1.955E+00
   1    3    6     3     2    1.7175E+00  2.4905E-01   1.4684E+00  0.000E+00  0.000E+00  0.000E+00  1.07264E+03  1.727E+00  8.909E+00  6.682E-02  1.864E+00
   1    3    7     3     3    1.4684E+00  1.9718E-01   1.2712E+00  0.000E+00  0.000E+00  0.000E+00  1.06987E+03  1.555E+00  8.218E+00  5.547E-02  1.777E+00
   1    4    8     3     4    1.2712E+00  2.2567E-01   1.0456E+00  0.000E+00  0.000E+00  0.000E+00  1.06682E+03  1.364E+00  7.455E+00  6.709E-02  1.682E+00
   1    5    8     3     5    1.0456E+00  1.5790E-01   8.8768E-01  0.000E+00  0.000E+00  0.000E+00  1.06362E+03  1.164E+00  6.655E+00  4.991E-02  1.582E+00
   1    6    8     3     6    8.8768E-01  5.5980E-02   8.3170E-01  0.000E+00  0.000E+00  0.000E+00  1.06158E+03  1.036E+00  6.145E+00  1.844E-02  1.518E+00
   1    5   10     4     1    1.0000E+01  9.0919E-02   9.9091E+00  0.000E+00  0.000E+00  0.000E+00  1.07836E+03  6.368E-01  1.000E+01  2.500E-02  1.212E+00
   1    5    9     4     2    9.9091E+00  1.8158E-01   9.7275E+00  0.000E+00  0.000E+00  0.000E+00  1.07154E+03  6.315E-01  1.000E+01  5.000E-02  1.211E+00
   1    6    8     4     3    9.7275E+00  1.2689E-01   9.6006E+00  0.000E+00  0.000E+00  0.000E+00  1.06381E+03  6.256E-01  1.000E+01  3.500E-02  1.209E+00
   1    6    8     5     1    1.0432E+01  2.2686E-01   1.0205E+01  0.000E+00  0.000E+00  0.000E+00  1.05868E+03  6.790E-01  1.542E+01  6.166E-02  1.226E+00
   1    7    7     5     2    1.0205E+01  2.7894E-01   9.9265E+00  0.000E+00  0.000E+00  0.000E+00  1.05417E+03  6.732E-01  1.519E+01  7.594E-02  1.224E+00
   1    8    7     5     3    9.9265E+00  1.9221E-01   9.7343E+00  0.000E+00  0.000E+00  0.000E+00  1.04992E+03  6.676E-01  1.497E+01  5.241E-02  1.223E+00
   1    8    6     5     4    9.7343E+00  1.3577E-01   9.5985E+00  0.000E+00  0.000E+00  0.000E+00  1.04691E+03  6.637E-01  1.482E+01  3.706E-02  1.221E+00
   1    9    6     6     1    3.2957E+01  2.6627E-01   3.2691E+01  0.000E+00  0.000E+00  0.000E+00  1.04417E+03  1.438E+00  1.200E+01  6.000E-02  1.479E+00
   1   10    7     6     2    3.2691E+01  2.6585E-01   3.2425E+01  0.000E+00  0.000E+00  0.000E+00  1.03961E+03  1.431E+00  1.200E+01  6.000E-02  1.477E+00
   1   11    7     6     3    3.2425E+01  2.6542E-01   3.2160E+01  0.000E+00  0.000E+00  0.000E+00  1.03506E+03  1.424E+00  1.200E+01  6.000E-02  1.475E+00
   1   12    7     6     4    3.2160E+01  2.6500E-01   3.1895E+01  0.000E+00  0.000E+00  0.000E+00  1.03051E+03  1.417E+00  1.200E+01  6.000E-02  1.472E+00
   1   13    7     6     5    3.1895E+01  3.4517E-03   3.1891E+01  0.000E+00  0.000E+00  0.000E+00  1.02732E+03  1.413E+00  1.200E+01  2.400E-02  4.794E-02
   1   14    9     7     1    1.5000E+02  1.3316E+00   1.4867E+02  0.000E+00  0.000E+00  0.000E+00  1.03987E+03  2.288E+00  5.529E+01  5.593E-01  7.936E-01
   1   13    8     7     2    1.4867E+02  1.8137E+00   1.4685E+02  0.000E+00  0.000E+00  0.000E+00  1.03478E+03  2.279E+00  5.526E+01  6.148E-01  9.834E-01
   1   13    7     7     3    1.4685E+02  1.4027E+00   1.4545E+02  0.000E+00  0.000E+00  0.000E+00  1.02969E+03  2.271E+00  5.522E+01  5.585E-01  8.372E-01
   1   13    6     8     1    1.7734E+02  8.5940E-01   1.7648E+02  0.000E+00  0.000E+00  0.000E+00  1.02487E+03  2.997E+00  4.345E+01  4.428E-01  6.470E-01
   1   13    5     8     2    1.7648E+02  9.4493E-02   1.7639E+02  0.000E+00  0.000E+00  0.000E+00  1.01862E+03  2.994E+00  4.341E+01  4.423E-01  7.121E-02
   1   13    4     8     3    1.7639E+02 -3.0236E+00   1.7941E+02  0.000E+00  0.000E+00  0.000E+00  1.01238E+03  3.003E+00  4.354E+01  4.437E+00 -2.271E-01
   1   13    3     8     4    1.7941E+02 -4.1348E+00   1.8355E+02  0.000E+00  0.000E+00  0.000E+00  1.00615E+03  3.025E+00  4.387E+01  4.470E+00 -3.083E-01
   1   13    2     8     5    1.8355E+02 -3.0731E+00   1.8662E+02  0.000E+00  0.000E+00  0.000E+00  9.99923E+02  3.048E+00  4.419E+01  4.503E+00 -2.275E-01
   1   13    1     8     6    1.8662E+02 -2.2892E+00   1.8891E+02  0.000E+00  0.000E+00  0.000E+00  9.94939E+02  3.064E+00  4.443E+01  2.717E+00 -2.809E-01



 UBDSV3 SAVING "           GW ET" ON UNIT  61 AT TIME STEP  7, STRESS PERIOD   5
 UBDSV3 SAVING "    UZF RECHARGE" ON UNIT  61 AT TIME STEP  7, STRESS PERIOD   5
 UBDSV3 SAVING " SURFACE LEAKAGE" ON UNIT  61 AT TIME STEP  7, STRESS PERIOD   5
 UBDSV3 SAVING "       HORT+DUNN" ON UNIT  61 AT TIME STEP  7, STRESS PERIOD   5
 UBDSV3 SAVING "  STORAGE CHANGE" ON UNIT  61 AT TIME STEP  7, STRESS PERIOD   5


UNSATURATED ZONE PACKAGE VOLUMETRIC BUDGET FOR  TIME STEP     7 STRESS PERIOD    5
  ------------------------------------------------------------------------------



     CUMULATIVE VOLUMES      L**3       RATES FOR THIS TIME STEP      L**3/T
     ------------------                 ------------------------

           IN:                                      IN:
           ---                                      ---
        INFILTRATION =    38865567.2708          INFILTRATION =           7.3185

          OUT:                                     OUT:
          ----                                     ----
              UZF ET =    18821341.6174                UZF ET =          16.1468
        UZF RECHARGE =       73224.0000          UZF RECHARGE =       0.0000E+00

            IN - OUT =    19971001.6533              IN - OUT =          -8.8283

          STORAGE:                                 STORAGE:
          --------                                 --------
      STORAGE CHANGE =    19971001.3262        STORAGE CHANGE =          -8.8283

 PERCENT DISCREPANCY IS DIFFERENCE BETWEEN IN-OUT MINUS CHANGE IN STORAGE
 DIVIDED BY THE AVERAGE OF IN AND OUT TIMES 100

 PERCENT DISCREPANCY =           0.00     PERCENT DISCREPANCY =           0.00






 

            AG WELLS      PERIOD    5   STEP   7
 AG WELL      1   LAYER   1   ROW     6   COL     4   RATE   -0.591586    
 AG WELL      2   LAYER   1   ROW     6   COL     5   RATE   -0.570344    
 AG WELL      3   LAYER   1   ROW     7   COL     4   RATE   -0.590948    
 AG WELL      4   LAYER   1   ROW     7   COL     5   RATE   -0.558222    
 AG WELL      5   LAYER   1   ROW     8   COL     4   RATE   -0.590948    
 AG WELL      6   LAYER   1   ROW     8   COL     5   RATE   -8.918963E-03
 
 

        GW IRRIGATION     PERIOD    5   STEP   7
 AG WELL      1   ROW     6   COL     4   RATE    0.591586    
 AG WELL      2   ROW     6   COL     5   RATE    0.570344    
 AG WELL      3   ROW     7   COL     4   RATE    0.590948    
 AG WELL      4   ROW     7   COL     5   RATE    0.558222    
 AG WELL      5   ROW     8   COL     4   RATE    0.590948    
 AG WELL      6   ROW     8   COL     5   RATE    8.918963E-03
 
1
  VOLUMETRIC BUDGET FOR AGRICULTURAL FIELDS AT TIME STEP    7, STRESS PERIOD   5
  ------------------------------------------------------------------------------

     CUMULATIVE VOLUMES      L**3       RATES FOR THIS TIME STEP      L**3/T
     ------------------                 ------------------------

           IN:                                      IN:
           ---                                      ---
               AG WELLS  =     1312433.8750                 AG WELLS  =           2.9110
      DIVERSION SEGMENTS =           0.0000        DIVERSION SEGMENTS =           0.0000
           GW IRRIGATION =           0.0000             GW IRRIGATION =           0.0000
           SW IRRIGATION =           0.0000             SW IRRIGATION =           0.0000
        SYSTEM LOSSES GW =           0.0000          SYSTEM LOSSES GW =           0.0000
        SYSTEM LOSSES SW =           0.0000          SYSTEM LOSSES SW =           0.0000

                TOTAL IN =     1312433.8750                  TOTAL IN =           2.9110

          OUT:                                     OUT:
          ----                                     ----
               AG WELLS  =           0.0000                 AG WELLS  =           0.0000
      DIVERSION SEGMENTS =           0.0000        DIVERSION SEGMENTS =           0.0000
           GW IRRIGATION =     1312433.8750             GW IRRIGATION =           2.9110
           SW IRRIGATION =           0.0000             SW IRRIGATION =           0.0000
        SYSTEM LOSSES GW =           0.0000          SYSTEM LOSSES GW =           0.0000
        SYSTEM LOSSES SW =           0.0000          SYSTEM LOSSES SW =           0.0000

               TOTAL OUT =     1312433.8750                 TOTAL OUT =           2.9110

                IN - OUT =           0.0000                  IN - OUT =           0.0000

     PERCENT DISCREPANCY =           0.00         PERCENT DISCREPANCY =           0.00



1
  VOLUMETRIC BUDGET FOR ENTIRE MODEL AT END OF TIME STEP    7, STRESS PERIOD   5
  ------------------------------------------------------------------------------

     CUMULATIVE VOLUMES      L**3       RATES FOR THIS TIME STEP      L**3/T
     ------------------                 ------------------------

           IN:                                      IN:
           ---                                      ---
             STORAGE     =     7354839.5000               STORAGE     =           5.2335
       CONSTANT HEAD     =           0.0000         CONSTANT HEAD     =           0.0000
     HEAD DEP BOUNDS     =     2451806.7500       HEAD DEP BOUNDS     =           0.2855
      STREAM LEAKAGE     =   106097976.0000        STREAM LEAKAGE     =          11.6110
        UZF RECHARGE     =       73223.9531          UZF RECHARGE     =           0.0000
               GW ET     =           0.0000                 GW ET     =           0.0000
     SURFACE LEAKAGE     =           0.0000       SURFACE LEAKAGE     =           0.0000
           AG WELLS      =           0.0000             AG WELLS      =           0.0000

                TOTAL IN =   115977848.0000                  TOTAL IN =          17.1300

          OUT:                                     OUT:
          ----                                     ----
             STORAGE     =    23237562.0000               STORAGE     =           1.2474
       CONSTANT HEAD     =           0.0000         CONSTANT HEAD     =           0.0000
     HEAD DEP BOUNDS     =     2509607.7500       HEAD DEP BOUNDS     =           0.2957
      STREAM LEAKAGE     =    88857184.0000        STREAM LEAKAGE     =          12.5208
        UZF RECHARGE     =           0.0000          UZF RECHARGE     =           0.0000
               GW ET     =       65606.2109                 GW ET     =           0.1539
     SURFACE LEAKAGE     =           0.0000       SURFACE LEAKAGE     =           0.0000
           AG WELLS      =     1312433.8750             AG WELLS      =           2.9110

               TOTAL OUT =   115982392.0000                 TOTAL OUT =          17.1288

                IN - OUT =       -4544.0000                  IN - OUT =       1.2112E-03

     PERCENT DISCREPANCY =          -0.00         PERCENT DISCREPANCY =           0.01






         TIME SUMMARY AT END OF TIME STEP    7 IN STRESS PERIOD    5
                    SECONDS     MINUTES      HOURS       DAYS        YEARS
                    -----------------------------------------------------------
   TIME STEP LENGTH  87667.      1461.1      24.352      1.0147     2.77799E-03
 STRESS PERIOD TIME 6.13667E+05  10228.      170.46      7.1026     1.94459E-02
         TOTAL TIME 8.59006E+06 1.43168E+05  2386.1      99.422     0.27220    
1
 
 SOLVING FOR HEAD 
                                                   Max.-Head-Change                         Max.-Flux-Residual
  Residual-Control   Outer-Iter.   Inner-Iter.     Column Row Layer    Maximum-Head-Change  Column Row Layer    Maximum-Flux-Residual          L2-NORM 
          0                 1           2             4    7     1      -0.1052343282E-01       4    7    1        -0.5519135198E+00      0.1506586227E+01
          0                 2           2             4    7     1       0.1023616851E-02       4    7    1         0.5519118917E-01      0.1490367004E+00
          0                 3           1             4    7     1      -0.6973241520E-04       4    7    1        -0.3863386441E-02      0.1093441305E-01

    ------------------------------------------------
       NWT REQUIRED            3 OUTER ITERATIONS 
       AND A TOTAL OF          5 INNER ITERATIONS.
    ------------------------------------------------

 OUTPUT CONTROL FOR STRESS PERIOD    5   TIME STEP    8
    PRINT BUDGET
    SAVE BUDGET
 UBDSV1 SAVING "         STORAGE" ON UNIT 102 AT TIME STEP  8, STRESS PERIOD   5
 UBDSV2 SAVING "   CONSTANT HEAD" ON UNIT 102 AT TIME STEP  8, STRESS PERIOD   5
 UBDSV1 SAVING "FLOW RIGHT FACE " ON UNIT 102 AT TIME STEP  8, STRESS PERIOD   5
 UBDSV1 SAVING "FLOW FRONT FACE " ON UNIT 102 AT TIME STEP  8, STRESS PERIOD   5

  HEAD DEP BOUNDS   PERIOD    5   STEP     8
 BOUNDARY      1   LAYER   1   ROW    13   COL     1   RATE   -0.295506    
 BOUNDARY      2   LAYER   1   ROW    14   COL     9   RATE    0.285475    



 STREAM LISTING     PERIOD      5   STEP        8

 LAYER ROW COL. STREAM  RCH.  FLOW INTO     FLOW TO   FLOW OUT OF   OVRLND.     DIRECT     STREAM       STREAM     STREAM     STREAM   STREAMBED  STREAMBED
                SEG.NO.  NO.  STRM. RCH.    AQUIFER    STRM. RCH.    RUNOFF     PRECIP       ET          HEAD       DEPTH      WIDTH   CONDCTNC.   GRADIENT

   1    1    1     1     1    2.8000E+01  2.5860E-01   2.7742E+01  0.000E+00  0.000E+00  0.000E+00  1.09427E+03  1.221E+00  1.361E+01  6.126E-02  1.407E+00
   1    2    2     1     2    2.7742E+01  4.0002E-01   2.7341E+01  0.000E+00  0.000E+00  0.000E+00  1.08928E+03  1.217E+00  1.355E+01  9.487E-02  1.406E+00
   1    3    3     1     3    2.7341E+01  3.4070E-01   2.7001E+01  0.000E+00  0.000E+00  0.000E+00  1.08363E+03  1.212E+00  1.348E+01  8.090E-02  1.404E+00
   1    3    4     1     4    2.7001E+01  3.1335E-01   2.6687E+01  0.000E+00  0.000E+00  0.000E+00  1.07861E+03  1.207E+00  1.342E+01  7.448E-02  1.402E+00
   1    4    5     2     1    2.4687E+01  3.2711E-01   2.4360E+01  0.000E+00  0.000E+00  0.000E+00  1.07313E+03  1.194E+00  1.200E+01  7.800E-02  1.398E+00
   1    5    6     2     2    2.4360E+01  2.5111E-01   2.4109E+01  0.000E+00  0.000E+00  0.000E+00  1.06769E+03  1.185E+00  1.200E+01  6.000E-02  1.395E+00
   1    6    6     2     3    2.4109E+01  2.5067E-01   2.3859E+01  0.000E+00  0.000E+00  0.000E+00  1.06297E+03  1.178E+00  1.200E+01  6.000E-02  1.393E+00
   1    7    6     2     4    2.3859E+01  2.5023E-01   2.3608E+01  0.000E+00  0.000E+00  0.000E+00  1.05825E+03  1.170E+00  1.200E+01  6.000E-02  1.390E+00
   1    8    6     2     5    2.3608E+01  2.4978E-01   2.3359E+01  0.000E+00  0.000E+00  0.000E+00  1.05352E+03  1.163E+00  1.200E+01  6.000E-02  1.388E+00
   1    3    5     3     1    2.0000E+00  2.8252E-01   1.7175E+00  0.000E+00  0.000E+00  0.000E+00  1.07555E+03  1.909E+00  9.636E+00  7.227E-02  1.955E+00
   1    3    6     3     2    1.7175E+00  2.4905E-01   1.4684E+00  0.000E+00  0.000E+00  0.000E+00  1.07264E+03  1.727E+00  8.909E+00  6.682E-02  1.864E+00
   1    3    7     3     3    1.4684E+00  1.9718E-01   1.2712E+00  0.000E+00  0.000E+00  0.000E+00  1.06987E+03  1.555E+00  8.218E+00  5.547E-02  1.777E+00
   1    4    8     3     4    1.2712E+00  2.2567E-01   1.0456E+00  0.000E+00  0.000E+00  0.000E+00  1.06682E+03  1.364E+00  7.455E+00  6.709E-02  1.682E+00
   1    5    8     3     5    1.0456E+00  1.5790E-01   8.8768E-01  0.000E+00  0.000E+00  0.000E+00  1.06362E+03  1.164E+00  6.655E+00  4.991E-02  1.582E+00
   1    6    8     3     6    8.8768E-01  5.5980E-02   8.3170E-01  0.000E+00  0.000E+00  0.000E+00  1.06158E+03  1.036E+00  6.145E+00  1.844E-02  1.518E+00
   1    5   10     4     1    1.0000E+01  9.0919E-02   9.9091E+00  0.000E+00  0.000E+00  0.000E+00  1.07836E+03  6.368E-01  1.000E+01  2.500E-02  1.212E+00
   1    5    9     4     2    9.9091E+00  1.8158E-01   9.7275E+00  0.000E+00  0.000E+00  0.000E+00  1.07154E+03  6.315E-01  1.000E+01  5.000E-02  1.211E+00
   1    6    8     4     3    9.7275E+00  1.2689E-01   9.6006E+00  0.000E+00  0.000E+00  0.000E+00  1.06381E+03  6.256E-01  1.000E+01  3.500E-02  1.209E+00
   1    6    8     5     1    1.0432E+01  2.2686E-01   1.0205E+01  0.000E+00  0.000E+00  0.000E+00  1.05868E+03  6.790E-01  1.542E+01  6.166E-02  1.226E+00
   1    7    7     5     2    1.0205E+01  2.7894E-01   9.9265E+00  0.000E+00  0.000E+00  0.000E+00  1.05417E+03  6.732E-01  1.519E+01  7.594E-02  1.224E+00
   1    8    7     5     3    9.9265E+00  1.9221E-01   9.7343E+00  0.000E+00  0.000E+00  0.000E+00  1.04992E+03  6.676E-01  1.497E+01  5.241E-02  1.223E+00
   1    8    6     5     4    9.7343E+00  1.3577E-01   9.5985E+00  0.000E+00  0.000E+00  0.000E+00  1.04691E+03  6.637E-01  1.482E+01  3.706E-02  1.221E+00
   1    9    6     6     1    3.2957E+01  2.6627E-01   3.2691E+01  0.000E+00  0.000E+00  0.000E+00  1.04417E+03  1.438E+00  1.200E+01  6.000E-02  1.479E+00
   1   10    7     6     2    3.2691E+01  2.6585E-01   3.2425E+01  0.000E+00  0.000E+00  0.000E+00  1.03961E+03  1.431E+00  1.200E+01  6.000E-02  1.477E+00
   1   11    7     6     3    3.2425E+01  2.6542E-01   3.2160E+01  0.000E+00  0.000E+00  0.000E+00  1.03506E+03  1.424E+00  1.200E+01  6.000E-02  1.475E+00
   1   12    7     6     4    3.2160E+01  2.6500E-01   3.1895E+01  0.000E+00  0.000E+00  0.000E+00  1.03051E+03  1.417E+00  1.200E+01  6.000E-02  1.472E+00
   1   13    7     6     5    3.1895E+01  3.4439E-03   3.1891E+01  0.000E+00  0.000E+00  0.000E+00  1.02732E+03  1.413E+00  1.200E+01  2.400E-02  4.783E-02
   1   14    9     7     1    1.5000E+02  1.3317E+00   1.4867E+02  0.000E+00  0.000E+00  0.000E+00  1.03987E+03  2.288E+00  5.529E+01  5.593E-01  7.936E-01
   1   13    8     7     2    1.4867E+02  1.8136E+00   1.4685E+02  0.000E+00  0.000E+00  0.000E+00  1.03478E+03  2.279E+00  5.526E+01  6.148E-01  9.833E-01
   1   13    7     7     3    1.4685E+02  1.4025E+00   1.4545E+02  0.000E+00  0.000E+00  0.000E+00  1.02969E+03  2.271E+00  5.522E+01  5.585E-01  8.371E-01
   1   13    6     8     1    1.7734E+02  8.5997E-01   1.7648E+02  0.000E+00  0.000E+00  0.000E+00  1.02487E+03  2.997E+00  4.345E+01  4.428E-01  6.474E-01
   1   13    5     8     2    1.7648E+02  9.5076E-02   1.7639E+02  0.000E+00  0.000E+00  0.000E+00  1.01862E+03  2.994E+00  4.341E+01  4.423E-01  7.165E-02
   1   13    4     8     3    1.7639E+02 -2.9891E+00   1.7938E+02  0.000E+00  0.000E+00  0.000E+00  1.01238E+03  3.003E+00  4.354E+01  4.437E+00 -2.246E-01
   1   13    3     8     4    1.7938E+02 -4.1000E+00   1.8348E+02  0.000E+00  0.000E+00  0.000E+00  1.00615E+03  3.025E+00  4.386E+01  4.470E+00 -3.057E-01
   1   13    2     8     5    1.8348E+02 -3.0377E+00   1.8652E+02  0.000E+00  0.000E+00  0.000E+00  9.99922E+02  3.047E+00  4.419E+01  4.503E+00 -2.249E-01
   1   13    1     8     6    1.8652E+02 -2.2757E+00   1.8879E+02  0.000E+00  0.000E+00  0.000E+00  9.94939E+02  3.064E+00  4.442E+01  2.716E+00 -2.793E-01



 UBDSV3 SAVING "           GW ET" ON UNIT  61 AT TIME STEP  8, STRESS PERIOD   5
 UBDSV3 SAVING "    UZF RECHARGE" ON UNIT  61 AT TIME STEP  8, STRESS PERIOD   5
 UBDSV3 SAVING " SURFACE LEAKAGE" ON UNIT  61 AT TIME STEP  8, STRESS PERIOD   5
 UBDSV3 SAVING "       HORT+DUNN" ON UNIT  61 AT TIME STEP  8, STRESS PERIOD   5
 UBDSV3 SAVING "  STORAGE CHANGE" ON UNIT  61 AT TIME STEP  8, STRESS PERIOD   5


UNSATURATED ZONE PACKAGE VOLUMETRIC BUDGET FOR  TIME STEP     8 STRESS PERIOD    5
  ------------------------------------------------------------------------------



     CUMULATIVE VOLUMES      L**3       RATES FOR THIS TIME STEP      L**3/T
     ------------------                 ------------------------

           IN:                                      IN:
           ---                                      ---
        INFILTRATION =    39507703.6155          INFILTRATION =           7.3247

          OUT:                                     OUT:
          ----                                     ----
              UZF ET =    20240269.7864                UZF ET =          16.1855
        UZF RECHARGE =       73224.0000          UZF RECHARGE =       0.0000E+00

            IN - OUT =    19194209.8291              IN - OUT =          -8.8607

          STORAGE:                                 STORAGE:
          --------                                 --------
      STORAGE CHANGE =    19194209.5147        STORAGE CHANGE =          -8.8607

 PERCENT DISCREPANCY IS DIFFERENCE BETWEEN IN-OUT MINUS CHANGE IN STORAGE
 DIVIDED BY THE AVERAGE OF IN AND OUT TIMES 100

 PERCENT DISCREPANCY =           0.00     PERCENT DISCREPANCY =           0.00






 

            AG WELLS      PERIOD    5   STEP   8
 AG WELL      1   LAYER   1   ROW     6   COL     4   RATE   -0.592097    
 AG WELL      2   LAYER   1   ROW     6   COL     5   RATE   -0.572780    
 AG WELL      3   LAYER   1   ROW     7   COL     4   RATE   -0.591292    
 AG WELL      4   LAYER   1   ROW     7   COL     5   RATE   -0.560922    
 AG WELL      5   LAYER   1   ROW     8   COL     4   RATE   -0.591292    
 AG WELL      6   LAYER   1   ROW     8   COL     5   RATE   -8.865676E-03
 
 

        GW IRRIGATION     PERIOD    5   STEP   8
 AG WELL      1   ROW     6   COL     4   RATE    0.592097    
 AG WELL      2   ROW     6   COL     5   RATE    0.572780    
 AG WELL      3   ROW     7   COL     4   RATE    0.591292    
 AG WELL      4   ROW     7   COL     5   RATE    0.560922    
 AG WELL      5   ROW     8   COL     4   RATE    0.591292    
 AG WELL      6   ROW     8   COL     5   RATE    8.865676E-03
 
1
  VOLUMETRIC BUDGET FOR AGRICULTURAL FIELDS AT TIME STEP    8, STRESS PERIOD   5
  ------------------------------------------------------------------------------

     CUMULATIVE VOLUMES      L**3       RATES FOR THIS TIME STEP      L**3/T
     ------------------                 ------------------------

           IN:                                      IN:
           ---                                      ---
               AG WELLS  =     1568179.3750                 AG WELLS  =           2.9172
      DIVERSION SEGMENTS =           0.0000        DIVERSION SEGMENTS =           0.0000
           GW IRRIGATION =           0.0000             GW IRRIGATION =           0.0000
           SW IRRIGATION =           0.0000             SW IRRIGATION =           0.0000
        SYSTEM LOSSES GW =           0.0000          SYSTEM LOSSES GW =           0.0000
        SYSTEM LOSSES SW =           0.0000          SYSTEM LOSSES SW =           0.0000

                TOTAL IN =     1568179.3750                  TOTAL IN =           2.9172

          OUT:                                     OUT:
          ----                                     ----
               AG WELLS  =           0.0000                 AG WELLS  =           0.0000
      DIVERSION SEGMENTS =           0.0000        DIVERSION SEGMENTS =           0.0000
           GW IRRIGATION =     1568179.3750             GW IRRIGATION =           2.9172
           SW IRRIGATION =           0.0000             SW IRRIGATION =           0.0000
        SYSTEM LOSSES GW =           0.0000          SYSTEM LOSSES GW =           0.0000
        SYSTEM LOSSES SW =           0.0000          SYSTEM LOSSES SW =           0.0000

               TOTAL OUT =     1568179.3750                 TOTAL OUT =           2.9172

                IN - OUT =           0.0000                  IN - OUT =           0.0000

     PERCENT DISCREPANCY =           0.00         PERCENT DISCREPANCY =           0.00



1
  VOLUMETRIC BUDGET FOR ENTIRE MODEL AT END OF TIME STEP    8, STRESS PERIOD   5
  ------------------------------------------------------------------------------

     CUMULATIVE VOLUMES      L**3       RATES FOR THIS TIME STEP      L**3/T
     ------------------                 ------------------------

           IN:                                      IN:
           ---                                      ---
             STORAGE     =     7799362.0000               STORAGE     =           5.0706
       CONSTANT HEAD     =           0.0000         CONSTANT HEAD     =           0.0000
     HEAD DEP BOUNDS     =     2476833.5000       HEAD DEP BOUNDS     =           0.2855
      STREAM LEAKAGE     =   107115944.0000        STREAM LEAKAGE     =          11.6118
        UZF RECHARGE     =       73223.9531          UZF RECHARGE     =           0.0000
               GW ET     =           0.0000                 GW ET     =           0.0000
     SURFACE LEAKAGE     =           0.0000       SURFACE LEAKAGE     =           0.0000
           AG WELLS      =           0.0000             AG WELLS      =           0.0000

                TOTAL IN =   117465368.0000                  TOTAL IN =          16.9679

          OUT:                                     OUT:
          ----                                     ----
             STORAGE     =    23344140.0000               STORAGE     =           1.2157
       CONSTANT HEAD     =           0.0000         CONSTANT HEAD     =           0.0000
     HEAD DEP BOUNDS     =     2535513.7500       HEAD DEP BOUNDS     =           0.2955
      STREAM LEAKAGE     =    89944464.0000        STREAM LEAKAGE     =          12.4024
        UZF RECHARGE     =           0.0000          UZF RECHARGE     =           0.0000
               GW ET     =       77506.8750                 GW ET     =           0.1357
     SURFACE LEAKAGE     =           0.0000       SURFACE LEAKAGE     =           0.0000
           AG WELLS      =     1568179.3750             AG WELLS      =           2.9172

               TOTAL OUT =   117469800.0000                 TOTAL OUT =          16.9667

                IN - OUT =       -4432.0000                  IN - OUT =       1.2455E-03

     PERCENT DISCREPANCY =          -0.00         PERCENT DISCREPANCY =           0.01






         TIME SUMMARY AT END OF TIME STEP    8 IN STRESS PERIOD    5
                    SECONDS     MINUTES      HOURS       DAYS        YEARS
                    -----------------------------------------------------------
   TIME STEP LENGTH  87667.      1461.1      24.352      1.0147     2.77799E-03
 STRESS PERIOD TIME 7.01333E+05  11689.      194.81      8.1173     2.22239E-02
         TOTAL TIME 8.67773E+06 1.44629E+05  2410.5      100.44     0.27498    
1
 
 SOLVING FOR HEAD 
                                                   Max.-Head-Change                         Max.-Flux-Residual
  Residual-Control   Outer-Iter.   Inner-Iter.     Column Row Layer    Maximum-Head-Change  Column Row Layer    Maximum-Flux-Residual          L2-NORM 
          0                 1           2             5    8     1      -0.1054107697E-01       5    8    1        -0.5663299923E+00      0.1547017044E+01
          0                 2           2             5    8     1       0.1025353226E-02       5    8    1         0.5663268610E-01      0.1533725458E+00
          0                 3           1             5    8     1      -0.6982279647E-04       5    8    1        -0.3964292695E-02      0.1062094032E-01

    ------------------------------------------------
       NWT REQUIRED            3 OUTER ITERATIONS 
       AND A TOTAL OF          5 INNER ITERATIONS.
    ------------------------------------------------

 OUTPUT CONTROL FOR STRESS PERIOD    5   TIME STEP    9
    PRINT BUDGET
    SAVE BUDGET
 UBDSV1 SAVING "         STORAGE" ON UNIT 102 AT TIME STEP  9, STRESS PERIOD   5
 UBDSV2 SAVING "   CONSTANT HEAD" ON UNIT 102 AT TIME STEP  9, STRESS PERIOD   5
 UBDSV1 SAVING "FLOW RIGHT FACE " ON UNIT 102 AT TIME STEP  9, STRESS PERIOD   5
 UBDSV1 SAVING "FLOW FRONT FACE " ON UNIT 102 AT TIME STEP  9, STRESS PERIOD   5

  HEAD DEP BOUNDS   PERIOD    5   STEP     9
 BOUNDARY      1   LAYER   1   ROW    13   COL     1   RATE   -0.295306    
 BOUNDARY      2   LAYER   1   ROW    14   COL     9   RATE    0.285476    



 STREAM LISTING     PERIOD      5   STEP        9

 LAYER ROW COL. STREAM  RCH.  FLOW INTO     FLOW TO   FLOW OUT OF   OVRLND.     DIRECT     STREAM       STREAM     STREAM     STREAM   STREAMBED  STREAMBED
                SEG.NO.  NO.  STRM. RCH.    AQUIFER    STRM. RCH.    RUNOFF     PRECIP       ET          HEAD       DEPTH      WIDTH   CONDCTNC.   GRADIENT

   1    1    1     1     1    2.8000E+01  2.5860E-01   2.7742E+01  0.000E+00  0.000E+00  0.000E+00  1.09427E+03  1.221E+00  1.361E+01  6.126E-02  1.407E+00
   1    2    2     1     2    2.7742E+01  4.0002E-01   2.7341E+01  0.000E+00  0.000E+00  0.000E+00  1.08928E+03  1.217E+00  1.355E+01  9.487E-02  1.406E+00
   1    3    3     1     3    2.7341E+01  3.4070E-01   2.7001E+01  0.000E+00  0.000E+00  0.000E+00  1.08363E+03  1.212E+00  1.348E+01  8.090E-02  1.404E+00
   1    3    4     1     4    2.7001E+01  3.1335E-01   2.6687E+01  0.000E+00  0.000E+00  0.000E+00  1.07861E+03  1.207E+00  1.342E+01  7.448E-02  1.402E+00
   1    4    5     2     1    2.4687E+01  3.2711E-01   2.4360E+01  0.000E+00  0.000E+00  0.000E+00  1.07313E+03  1.194E+00  1.200E+01  7.800E-02  1.398E+00
   1    5    6     2     2    2.4360E+01  2.5111E-01   2.4109E+01  0.000E+00  0.000E+00  0.000E+00  1.06769E+03  1.185E+00  1.200E+01  6.000E-02  1.395E+00
   1    6    6     2     3    2.4109E+01  2.5067E-01   2.3859E+01  0.000E+00  0.000E+00  0.000E+00  1.06297E+03  1.178E+00  1.200E+01  6.000E-02  1.393E+00
   1    7    6     2     4    2.3859E+01  2.5023E-01   2.3608E+01  0.000E+00  0.000E+00  0.000E+00  1.05825E+03  1.170E+00  1.200E+01  6.000E-02  1.390E+00
   1    8    6     2     5    2.3608E+01  2.4978E-01   2.3359E+01  0.000E+00  0.000E+00  0.000E+00  1.05352E+03  1.163E+00  1.200E+01  6.000E-02  1.388E+00
   1    3    5     3     1    2.0000E+00  2.8252E-01   1.7175E+00  0.000E+00  0.000E+00  0.000E+00  1.07555E+03  1.909E+00  9.636E+00  7.227E-02  1.955E+00
   1    3    6     3     2    1.7175E+00  2.4905E-01   1.4684E+00  0.000E+00  0.000E+00  0.000E+00  1.07264E+03  1.727E+00  8.909E+00  6.682E-02  1.864E+00
   1    3    7     3     3    1.4684E+00  1.9718E-01   1.2712E+00  0.000E+00  0.000E+00  0.000E+00  1.06987E+03  1.555E+00  8.218E+00  5.547E-02  1.777E+00
   1    4    8     3     4    1.2712E+00  2.2567E-01   1.0456E+00  0.000E+00  0.000E+00  0.000E+00  1.06682E+03  1.364E+00  7.455E+00  6.709E-02  1.682E+00
   1    5    8     3     5    1.0456E+00  1.5790E-01   8.8768E-01  0.000E+00  0.000E+00  0.000E+00  1.06362E+03  1.164E+00  6.655E+00  4.991E-02  1.582E+00
   1    6    8     3     6    8.8768E-01  5.5980E-02   8.3170E-01  0.000E+00  0.000E+00  0.000E+00  1.06158E+03  1.036E+00  6.145E+00  1.844E-02  1.518E+00
   1    5   10     4     1    1.0000E+01  9.0919E-02   9.9091E+00  0.000E+00  0.000E+00  0.000E+00  1.07836E+03  6.368E-01  1.000E+01  2.500E-02  1.212E+00
   1    5    9     4     2    9.9091E+00  1.8158E-01   9.7275E+00  0.000E+00  0.000E+00  0.000E+00  1.07154E+03  6.315E-01  1.000E+01  5.000E-02  1.211E+00
   1    6    8     4     3    9.7275E+00  1.2689E-01   9.6006E+00  0.000E+00  0.000E+00  0.000E+00  1.06381E+03  6.256E-01  1.000E+01  3.500E-02  1.209E+00
   1    6    8     5     1    1.0432E+01  2.2686E-01   1.0205E+01  0.000E+00  0.000E+00  0.000E+00  1.05868E+03  6.790E-01  1.542E+01  6.166E-02  1.226E+00
   1    7    7     5     2    1.0205E+01  2.7894E-01   9.9265E+00  0.000E+00  0.000E+00  0.000E+00  1.05417E+03  6.732E-01  1.519E+01  7.594E-02  1.224E+00
   1    8    7     5     3    9.9265E+00  1.9221E-01   9.7343E+00  0.000E+00  0.000E+00  0.000E+00  1.04992E+03  6.676E-01  1.497E+01  5.241E-02  1.223E+00
   1    8    6     5     4    9.7343E+00  1.3577E-01   9.5985E+00  0.000E+00  0.000E+00  0.000E+00  1.04691E+03  6.637E-01  1.482E+01  3.706E-02  1.221E+00
   1    9    6     6     1    3.2957E+01  2.6627E-01   3.2691E+01  0.000E+00  0.000E+00  0.000E+00  1.04417E+03  1.438E+00  1.200E+01  6.000E-02  1.479E+00
   1   10    7     6     2    3.2691E+01  2.6585E-01   3.2425E+01  0.000E+00  0.000E+00  0.000E+00  1.03961E+03  1.431E+00  1.200E+01  6.000E-02  1.477E+00
   1   11    7     6     3    3.2425E+01  2.6542E-01   3.2160E+01  0.000E+00  0.000E+00  0.000E+00  1.03506E+03  1.424E+00  1.200E+01  6.000E-02  1.475E+00
   1   12    7     6     4    3.2160E+01  2.6500E-01   3.1895E+01  0.000E+00  0.000E+00  0.000E+00  1.03051E+03  1.417E+00  1.200E+01  6.000E-02  1.472E+00
   1   13    7     6     5    3.1895E+01  3.4365E-03   3.1891E+01  0.000E+00  0.000E+00  0.000E+00  1.02732E+03  1.413E+00  1.200E+01  2.400E-02  4.773E-02
   1   14    9     7     1    1.5000E+02  1.3317E+00   1.4867E+02  0.000E+00  0.000E+00  0.000E+00  1.03987E+03  2.288E+00  5.529E+01  5.593E-01  7.936E-01
   1   13    8     7     2    1.4867E+02  1.8134E+00   1.4685E+02  0.000E+00  0.000E+00  0.000E+00  1.03478E+03  2.279E+00  5.526E+01  6.148E-01  9.832E-01
   1   13    7     7     3    1.4685E+02  1.4024E+00   1.4545E+02  0.000E+00  0.000E+00  0.000E+00  1.02969E+03  2.271E+00  5.522E+01  5.585E-01  8.370E-01
   1   13    6     8     1    1.7734E+02  8.6052E-01   1.7648E+02  0.000E+00  0.000E+00  0.000E+00  1.02487E+03  2.997E+00  4.345E+01  4.428E-01  6.478E-01
   1   13    5     8     2    1.7648E+02  9.5668E-02   1.7639E+02  0.000E+00  0.000E+00  0.000E+00  1.01862E+03  2.994E+00  4.341E+01  4.423E-01  7.209E-02
   1   13    4     8     3    1.7639E+02 -2.9585E+00   1.7935E+02  0.000E+00  0.000E+00  0.000E+00  1.01238E+03  3.003E+00  4.354E+01  4.437E+00 -2.223E-01
   1   13    3     8     4    1.7935E+02 -4.0685E+00   1.8341E+02  0.000E+00  0.000E+00  0.000E+00  1.00615E+03  3.025E+00  4.386E+01  4.469E+00 -3.034E-01
   1   13    2     8     5    1.8341E+02 -3.0048E+00   1.8642E+02  0.000E+00  0.000E+00  0.000E+00  9.99922E+02  3.047E+00  4.418E+01  4.502E+00 -2.225E-01
   1   13    1     8     6    1.8642E+02 -2.2626E+00   1.8868E+02  0.000E+00  0.000E+00  0.000E+00  9.94938E+02  3.063E+00  4.441E+01  2.716E+00 -2.777E-01



 UBDSV3 SAVING "           GW ET" ON UNIT  61 AT TIME STEP  9, STRESS PERIOD   5
 UBDSV3 SAVING "    UZF RECHARGE" ON UNIT  61 AT TIME STEP  9, STRESS PERIOD   5
 UBDSV3 SAVING " SURFACE LEAKAGE" ON UNIT  61 AT TIME STEP  9, STRESS PERIOD   5
 UBDSV3 SAVING "       HORT+DUNN" ON UNIT  61 AT TIME STEP  9, STRESS PERIOD   5
 UBDSV3 SAVING "  STORAGE CHANGE" ON UNIT  61 AT TIME STEP  9, STRESS PERIOD   5


UNSATURATED ZONE PACKAGE VOLUMETRIC BUDGET FOR  TIME STEP     9 STRESS PERIOD    5
  ------------------------------------------------------------------------------



     CUMULATIVE VOLUMES      L**3       RATES FOR THIS TIME STEP      L**3/T
     ------------------                 ------------------------

           IN:                                      IN:
           ---                                      ---
        INFILTRATION =    40193352.0325          INFILTRATION =           7.8211

          OUT:                                     OUT:
          ----                                     ----
              UZF ET =    21141887.7190                UZF ET =          10.2846
        UZF RECHARGE =       73224.0000          UZF RECHARGE =       0.0000E+00

            IN - OUT =    18978240.3135              IN - OUT =          -2.4635

          STORAGE:                                 STORAGE:
          --------                                 --------
      STORAGE CHANGE =    18978240.0045        STORAGE CHANGE =          -2.4635

 PERCENT DISCREPANCY IS DIFFERENCE BETWEEN IN-OUT MINUS CHANGE IN STORAGE
 DIVIDED BY THE AVERAGE OF IN AND OUT TIMES 100

 PERCENT DISCREPANCY =           0.00     PERCENT DISCREPANCY =           0.00






 

            AG WELLS      PERIOD    5   STEP   9
 AG WELL      1   LAYER   1   ROW     6   COL     4   RATE   -0.592554    
 AG WELL      2   LAYER   1   ROW     6   COL     5   RATE   -0.574751    
 AG WELL      3   LAYER   1   ROW     7   COL     4   RATE   -0.591603    
 AG WELL      4   LAYER   1   ROW     7   COL     5   RATE   -0.563074    
 AG WELL      5   LAYER   1   ROW     8   COL     4   RATE   -0.591603    
 AG WELL      6   LAYER   1   ROW     8   COL     5   RATE   -0.500000    
 
 

        GW IRRIGATION     PERIOD    5   STEP   9
 AG WELL      1   ROW     6   COL     4   RATE    0.592554    
 AG WELL      2   ROW     6   COL     5   RATE    0.574751    
 AG WELL      3   ROW     7   COL     4   RATE    0.591603    
 AG WELL      4   ROW     7   COL     5   RATE    0.563074    
 AG WELL      5   ROW     8   COL     4   RATE    0.591603    
 AG WELL      6   ROW     8   COL     5   RATE    0.500000    
 
1
  VOLUMETRIC BUDGET FOR AGRICULTURAL FIELDS AT TIME STEP    9, STRESS PERIOD   5
  ------------------------------------------------------------------------------

     CUMULATIVE VOLUMES      L**3       RATES FOR THIS TIME STEP      L**3/T
     ------------------                 ------------------------

           IN:                                      IN:
           ---                                      ---
               AG WELLS  =     1867437.0000                 AG WELLS  =           3.4136
      DIVERSION SEGMENTS =           0.0000        DIVERSION SEGMENTS =           0.0000
           GW IRRIGATION =           0.0000             GW IRRIGATION =           0.0000
           SW IRRIGATION =           0.0000             SW IRRIGATION =           0.0000
        SYSTEM LOSSES GW =           0.0000          SYSTEM LOSSES GW =           0.0000
        SYSTEM LOSSES SW =           0.0000          SYSTEM LOSSES SW =           0.0000

                TOTAL IN =     1867437.0000                  TOTAL IN =           3.4136

          OUT:                                     OUT:
          ----                                     ----
               AG WELLS  =           0.0000                 AG WELLS  =           0.0000
      DIVERSION SEGMENTS =           0.0000        DIVERSION SEGMENTS =           0.0000
           GW IRRIGATION =     1867437.0000             GW IRRIGATION =           3.4136
           SW IRRIGATION =           0.0000             SW IRRIGATION =           0.0000
        SYSTEM LOSSES GW =           0.0000          SYSTEM LOSSES GW =           0.0000
        SYSTEM LOSSES SW =           0.0000          SYSTEM LOSSES SW =           0.0000

               TOTAL OUT =     1867437.0000                 TOTAL OUT =           3.4136

                IN - OUT =           0.0000                  IN - OUT =           0.0000

     PERCENT DISCREPANCY =           0.00         PERCENT DISCREPANCY =           0.00



1
  VOLUMETRIC BUDGET FOR ENTIRE MODEL AT END OF TIME STEP    9, STRESS PERIOD   5
  ------------------------------------------------------------------------------

     CUMULATIVE VOLUMES      L**3       RATES FOR THIS TIME STEP      L**3/T
     ------------------                 ------------------------

           IN:                                      IN:
           ---                                      ---
             STORAGE     =     8273529.5000               STORAGE     =           5.4088
       CONSTANT HEAD     =           0.0000         CONSTANT HEAD     =           0.0000
     HEAD DEP BOUNDS     =     2501860.2500       HEAD DEP BOUNDS     =           0.2855
      STREAM LEAKAGE     =   108133984.0000        STREAM LEAKAGE     =          11.6127
        UZF RECHARGE     =       73223.9531          UZF RECHARGE     =           0.0000
               GW ET     =           0.0000                 GW ET     =           0.0000
     SURFACE LEAKAGE     =           0.0000       SURFACE LEAKAGE     =           0.0000
           AG WELLS      =           0.0000             AG WELLS      =           0.0000

                TOTAL IN =   118982600.0000                  TOTAL IN =          17.3069

          OUT:                                     OUT:
          ----                                     ----
             STORAGE     =    23447844.0000               STORAGE     =           1.1829
       CONSTANT HEAD     =           0.0000         CONSTANT HEAD     =           0.0000
     HEAD DEP BOUNDS     =     2561402.2500       HEAD DEP BOUNDS     =           0.2953
      STREAM LEAKAGE     =    91022272.0000        STREAM LEAKAGE     =          12.2944
        UZF RECHARGE     =           0.0000          UZF RECHARGE     =           0.0000
               GW ET     =       87981.4062                 GW ET     =           0.1195
     SURFACE LEAKAGE     =           0.0000       SURFACE LEAKAGE     =           0.0000
           AG WELLS      =     1867437.0000             AG WELLS      =           3.4136

               TOTAL OUT =   118986944.0000                 TOTAL OUT =          17.3057

                IN - OUT =       -4344.0000                  IN - OUT =       1.2188E-03

     PERCENT DISCREPANCY =          -0.00         PERCENT DISCREPANCY =           0.01






         TIME SUMMARY AT END OF TIME STEP    9 IN STRESS PERIOD    5
                    SECONDS     MINUTES      HOURS       DAYS        YEARS
                    -----------------------------------------------------------
   TIME STEP LENGTH  87667.      1461.1      24.352      1.0147     2.77799E-03
 STRESS PERIOD TIME 7.89000E+05  13150.      219.17      9.1319     2.50019E-02
         TOTAL TIME 8.76540E+06 1.46090E+05  2434.8      101.45     0.27776    
1
 
 SOLVING FOR HEAD 
                                                   Max.-Head-Change                         Max.-Flux-Residual
  Residual-Control   Outer-Iter.   Inner-Iter.     Column Row Layer    Maximum-Head-Change  Column Row Layer    Maximum-Flux-Residual          L2-NORM 
          0                 1           2             4    7     1      -0.1034683080E-01       4    7    1        -0.5424741669E+00      0.1470999060E+01
          0                 2           2             4    7     1       0.1006462942E-02       4    7    1         0.5424731496E-01      0.1459970194E+00
          0                 3           1             4    7     1      -0.6853641049E-04       4    7    1        -0.3797314654E-02      0.1011805996E-01

    ------------------------------------------------
       NWT REQUIRED            3 OUTER ITERATIONS 
       AND A TOTAL OF          5 INNER ITERATIONS.
    ------------------------------------------------

 OUTPUT CONTROL FOR STRESS PERIOD    5   TIME STEP   10
    PRINT BUDGET
    SAVE BUDGET
 UBDSV1 SAVING "         STORAGE" ON UNIT 102 AT TIME STEP 10, STRESS PERIOD   5
 UBDSV2 SAVING "   CONSTANT HEAD" ON UNIT 102 AT TIME STEP 10, STRESS PERIOD   5
 UBDSV1 SAVING "FLOW RIGHT FACE " ON UNIT 102 AT TIME STEP 10, STRESS PERIOD   5
 UBDSV1 SAVING "FLOW FRONT FACE " ON UNIT 102 AT TIME STEP 10, STRESS PERIOD   5

  HEAD DEP BOUNDS   PERIOD    5   STEP    10
 BOUNDARY      1   LAYER   1   ROW    13   COL     1   RATE   -0.295113    
 BOUNDARY      2   LAYER   1   ROW    14   COL     9   RATE    0.285477    



 STREAM LISTING     PERIOD      5   STEP       10

 LAYER ROW COL. STREAM  RCH.  FLOW INTO     FLOW TO   FLOW OUT OF   OVRLND.     DIRECT     STREAM       STREAM     STREAM     STREAM   STREAMBED  STREAMBED
                SEG.NO.  NO.  STRM. RCH.    AQUIFER    STRM. RCH.    RUNOFF     PRECIP       ET          HEAD       DEPTH      WIDTH   CONDCTNC.   GRADIENT

   1    1    1     1     1    2.8000E+01  2.5860E-01   2.7742E+01  0.000E+00  0.000E+00  0.000E+00  1.09427E+03  1.221E+00  1.361E+01  6.126E-02  1.407E+00
   1    2    2     1     2    2.7742E+01  4.0002E-01   2.7341E+01  0.000E+00  0.000E+00  0.000E+00  1.08928E+03  1.217E+00  1.355E+01  9.487E-02  1.406E+00
   1    3    3     1     3    2.7341E+01  3.4070E-01   2.7001E+01  0.000E+00  0.000E+00  0.000E+00  1.08363E+03  1.212E+00  1.348E+01  8.090E-02  1.404E+00
   1    3    4     1     4    2.7001E+01  3.1335E-01   2.6687E+01  0.000E+00  0.000E+00  0.000E+00  1.07861E+03  1.207E+00  1.342E+01  7.448E-02  1.402E+00
   1    4    5     2     1    2.4687E+01  3.2711E-01   2.4360E+01  0.000E+00  0.000E+00  0.000E+00  1.07313E+03  1.194E+00  1.200E+01  7.800E-02  1.398E+00
   1    5    6     2     2    2.4360E+01  2.5111E-01   2.4109E+01  0.000E+00  0.000E+00  0.000E+00  1.06769E+03  1.185E+00  1.200E+01  6.000E-02  1.395E+00
   1    6    6     2     3    2.4109E+01  2.5067E-01   2.3859E+01  0.000E+00  0.000E+00  0.000E+00  1.06297E+03  1.178E+00  1.200E+01  6.000E-02  1.393E+00
   1    7    6     2     4    2.3859E+01  2.5023E-01   2.3608E+01  0.000E+00  0.000E+00  0.000E+00  1.05825E+03  1.170E+00  1.200E+01  6.000E-02  1.390E+00
   1    8    6     2     5    2.3608E+01  2.4978E-01   2.3359E+01  0.000E+00  0.000E+00  0.000E+00  1.05352E+03  1.163E+00  1.200E+01  6.000E-02  1.388E+00
   1    3    5     3     1    2.0000E+00  2.8252E-01   1.7175E+00  0.000E+00  0.000E+00  0.000E+00  1.07555E+03  1.909E+00  9.636E+00  7.227E-02  1.955E+00
   1    3    6     3     2    1.7175E+00  2.4905E-01   1.4684E+00  0.000E+00  0.000E+00  0.000E+00  1.07264E+03  1.727E+00  8.909E+00  6.682E-02  1.864E+00
   1    3    7     3     3    1.4684E+00  1.9718E-01   1.2712E+00  0.000E+00  0.000E+00  0.000E+00  1.06987E+03  1.555E+00  8.218E+00  5.547E-02  1.777E+00
   1    4    8     3     4    1.2712E+00  2.2567E-01   1.0456E+00  0.000E+00  0.000E+00  0.000E+00  1.06682E+03  1.364E+00  7.455E+00  6.709E-02  1.682E+00
   1    5    8     3     5    1.0456E+00  1.5790E-01   8.8768E-01  0.000E+00  0.000E+00  0.000E+00  1.06362E+03  1.164E+00  6.655E+00  4.991E-02  1.582E+00
   1    6    8     3     6    8.8768E-01  5.5980E-02   8.3170E-01  0.000E+00  0.000E+00  0.000E+00  1.06158E+03  1.036E+00  6.145E+00  1.844E-02  1.518E+00
   1    5   10     4     1    1.0000E+01  9.0919E-02   9.9091E+00  0.000E+00  0.000E+00  0.000E+00  1.07836E+03  6.368E-01  1.000E+01  2.500E-02  1.212E+00
   1    5    9     4     2    9.9091E+00  1.8158E-01   9.7275E+00  0.000E+00  0.000E+00  0.000E+00  1.07154E+03  6.315E-01  1.000E+01  5.000E-02  1.211E+00
   1    6    8     4     3    9.7275E+00  1.2689E-01   9.6006E+00  0.000E+00  0.000E+00  0.000E+00  1.06381E+03  6.256E-01  1.000E+01  3.500E-02  1.209E+00
   1    6    8     5     1    1.0432E+01  2.2686E-01   1.0205E+01  0.000E+00  0.000E+00  0.000E+00  1.05868E+03  6.790E-01  1.542E+01  6.166E-02  1.226E+00
   1    7    7     5     2    1.0205E+01  2.7894E-01   9.9265E+00  0.000E+00  0.000E+00  0.000E+00  1.05417E+03  6.732E-01  1.519E+01  7.594E-02  1.224E+00
   1    8    7     5     3    9.9265E+00  1.9221E-01   9.7343E+00  0.000E+00  0.000E+00  0.000E+00  1.04992E+03  6.676E-01  1.497E+01  5.241E-02  1.223E+00
   1    8    6     5     4    9.7343E+00  1.3577E-01   9.5985E+00  0.000E+00  0.000E+00  0.000E+00  1.04691E+03  6.637E-01  1.482E+01  3.706E-02  1.221E+00
   1    9    6     6     1    3.2957E+01  2.6627E-01   3.2691E+01  0.000E+00  0.000E+00  0.000E+00  1.04417E+03  1.438E+00  1.200E+01  6.000E-02  1.479E+00
   1   10    7     6     2    3.2691E+01  2.6585E-01   3.2425E+01  0.000E+00  0.000E+00  0.000E+00  1.03961E+03  1.431E+00  1.200E+01  6.000E-02  1.477E+00
   1   11    7     6     3    3.2425E+01  2.6542E-01   3.2160E+01  0.000E+00  0.000E+00  0.000E+00  1.03506E+03  1.424E+00  1.200E+01  6.000E-02  1.475E+00
   1   12    7     6     4    3.2160E+01  2.6500E-01   3.1895E+01  0.000E+00  0.000E+00  0.000E+00  1.03051E+03  1.417E+00  1.200E+01  6.000E-02  1.472E+00
   1   13    7     6     5    3.1895E+01  3.4296E-03   3.1891E+01  0.000E+00  0.000E+00  0.000E+00  1.02732E+03  1.413E+00  1.200E+01  2.400E-02  4.763E-02
   1   14    9     7     1    1.5000E+02  1.3317E+00   1.4867E+02  0.000E+00  0.000E+00  0.000E+00  1.03987E+03  2.288E+00  5.529E+01  5.593E-01  7.937E-01
   1   13    8     7     2    1.4867E+02  1.8133E+00   1.4686E+02  0.000E+00  0.000E+00  0.000E+00  1.03478E+03  2.279E+00  5.526E+01  6.148E-01  9.832E-01
   1   13    7     7     3    1.4686E+02  1.4022E+00   1.4545E+02  0.000E+00  0.000E+00  0.000E+00  1.02969E+03  2.271E+00  5.522E+01  5.585E-01  8.369E-01
   1   13    6     8     1    1.7734E+02  8.6104E-01   1.7648E+02  0.000E+00  0.000E+00  0.000E+00  1.02487E+03  2.997E+00  4.345E+01  4.428E-01  6.482E-01
   1   13    5     8     2    1.7648E+02  9.6266E-02   1.7639E+02  0.000E+00  0.000E+00  0.000E+00  1.01862E+03  2.994E+00  4.341E+01  4.423E-01  7.254E-02
   1   13    4     8     3    1.7639E+02 -2.9311E+00   1.7932E+02  0.000E+00  0.000E+00  0.000E+00  1.01238E+03  3.003E+00  4.354E+01  4.437E+00 -2.202E-01
   1   13    3     8     4    1.7932E+02 -4.0401E+00   1.8336E+02  0.000E+00  0.000E+00  0.000E+00  1.00615E+03  3.025E+00  4.386E+01  4.469E+00 -3.013E-01
   1   13    2     8     5    1.8336E+02 -2.9744E+00   1.8633E+02  0.000E+00  0.000E+00  0.000E+00  9.99921E+02  3.046E+00  4.417E+01  4.501E+00 -2.203E-01
   1   13    1     8     6    1.8633E+02 -2.2499E+00   1.8858E+02  0.000E+00  0.000E+00  0.000E+00  9.94937E+02  3.062E+00  4.441E+01  2.715E+00 -2.762E-01



 UBDSV3 SAVING "           GW ET" ON UNIT  61 AT TIME STEP 10, STRESS PERIOD   5
 UBDSV3 SAVING "    UZF RECHARGE" ON UNIT  61 AT TIME STEP 10, STRESS PERIOD   5
 UBDSV3 SAVING " SURFACE LEAKAGE" ON UNIT  61 AT TIME STEP 10, STRESS PERIOD   5
 UBDSV3 SAVING "       HORT+DUNN" ON UNIT  61 AT TIME STEP 10, STRESS PERIOD   5
 UBDSV3 SAVING "  STORAGE CHANGE" ON UNIT  61 AT TIME STEP 10, STRESS PERIOD   5


UNSATURATED ZONE PACKAGE VOLUMETRIC BUDGET FOR  TIME STEP    10 STRESS PERIOD    5
  ------------------------------------------------------------------------------



     CUMULATIVE VOLUMES      L**3       RATES FOR THIS TIME STEP      L**3/T
     ------------------                 ------------------------

           IN:                                      IN:
           ---                                      ---
        INFILTRATION =    40874511.4885          INFILTRATION =           7.7699

          OUT:                                     OUT:
          ----                                     ----
              UZF ET =    22044113.5500                UZF ET =          10.2915
        UZF RECHARGE =       73224.0000          UZF RECHARGE =       0.0000E+00

            IN - OUT =    18757173.9385              IN - OUT =          -2.5217

          STORAGE:                                 STORAGE:
          --------                                 --------
      STORAGE CHANGE =    18757173.6311        STORAGE CHANGE =          -2.5217

 PERCENT DISCREPANCY IS DIFFERENCE BETWEEN IN-OUT MINUS CHANGE IN STORAGE
 DIVIDED BY THE AVERAGE OF IN AND OUT TIMES 100

 PERCENT DISCREPANCY =           0.00     PERCENT DISCREPANCY =           0.00






 

            AG WELLS      PERIOD    5   STEP  10
 AG WELL      1   LAYER   1   ROW     6   COL     4   RATE   -0.592965    
 AG WELL      2   LAYER   1   ROW     6   COL     5   RATE   -0.576375    
 AG WELL      3   LAYER   1   ROW     7   COL     4   RATE   -0.591884    
 AG WELL      4   LAYER   1   ROW     7   COL     5   RATE   -0.564820    
 AG WELL      5   LAYER   1   ROW     8   COL     4   RATE   -0.591884    
 AG WELL      6   LAYER   1   ROW     8   COL     5   RATE   -0.444451    
 
 

        GW IRRIGATION     PERIOD    5   STEP  10
 AG WELL      1   ROW     6   COL     4   RATE    0.592965    
 AG WELL      2   ROW     6   COL     5   RATE    0.576375    
 AG WELL      3   ROW     7   COL     4   RATE    0.591884    
 AG WELL      4   ROW     7   COL     5   RATE    0.564820    
 AG WELL      5   ROW     8   COL     4   RATE    0.591884    
 AG WELL      6   ROW     8   COL     5   RATE    0.444451    
 
1
  VOLUMETRIC BUDGET FOR AGRICULTURAL FIELDS AT TIME STEP   10, STRESS PERIOD   5
  ------------------------------------------------------------------------------

     CUMULATIVE VOLUMES      L**3       RATES FOR THIS TIME STEP      L**3/T
     ------------------                 ------------------------

           IN:                                      IN:
           ---                                      ---
               AG WELLS  =     2162205.7500                 AG WELLS  =           3.3624
      DIVERSION SEGMENTS =           0.0000        DIVERSION SEGMENTS =           0.0000
           GW IRRIGATION =           0.0000             GW IRRIGATION =           0.0000
           SW IRRIGATION =           0.0000             SW IRRIGATION =           0.0000
        SYSTEM LOSSES GW =           0.0000          SYSTEM LOSSES GW =           0.0000
        SYSTEM LOSSES SW =           0.0000          SYSTEM LOSSES SW =           0.0000

                TOTAL IN =     2162205.7500                  TOTAL IN =           3.3624

          OUT:                                     OUT:
          ----                                     ----
               AG WELLS  =           0.0000                 AG WELLS  =           0.0000
      DIVERSION SEGMENTS =           0.0000        DIVERSION SEGMENTS =           0.0000
           GW IRRIGATION =     2162205.7500             GW IRRIGATION =           3.3624
           SW IRRIGATION =           0.0000             SW IRRIGATION =           0.0000
        SYSTEM LOSSES GW =           0.0000          SYSTEM LOSSES GW =           0.0000
        SYSTEM LOSSES SW =           0.0000          SYSTEM LOSSES SW =           0.0000

               TOTAL OUT =     2162205.7500                 TOTAL OUT =           3.3624

                IN - OUT =           0.0000                  IN - OUT =           0.0000

     PERCENT DISCREPANCY =           0.00         PERCENT DISCREPANCY =           0.00



1
  VOLUMETRIC BUDGET FOR ENTIRE MODEL AT END OF TIME STEP   10, STRESS PERIOD   5
  ------------------------------------------------------------------------------

     CUMULATIVE VOLUMES      L**3       RATES FOR THIS TIME STEP      L**3/T
     ------------------                 ------------------------

           IN:                                      IN:
           ---                                      ---
             STORAGE     =     8730991.0000               STORAGE     =           5.2182
       CONSTANT HEAD     =           0.0000         CONSTANT HEAD     =           0.0000
     HEAD DEP BOUNDS     =     2526887.0000       HEAD DEP BOUNDS     =           0.2855
      STREAM LEAKAGE     =   109152096.0000        STREAM LEAKAGE     =          11.6135
        UZF RECHARGE     =       73223.9531          UZF RECHARGE     =           0.0000
               GW ET     =           0.0000                 GW ET     =           0.0000
     SURFACE LEAKAGE     =           0.0000       SURFACE LEAKAGE     =           0.0000
           AG WELLS      =           0.0000             AG WELLS      =           0.0000

                TOTAL IN =   120483200.0000                  TOTAL IN =          17.1172

          OUT:                                     OUT:
          ----                                     ----
             STORAGE     =    23549362.0000               STORAGE     =           1.1580
       CONSTANT HEAD     =           0.0000         CONSTANT HEAD     =           0.0000
     HEAD DEP BOUNDS     =     2587273.7500       HEAD DEP BOUNDS     =           0.2951
      STREAM LEAKAGE     =    92091424.0000        STREAM LEAKAGE     =          12.1956
        UZF RECHARGE     =           0.0000          UZF RECHARGE     =           0.0000
               GW ET     =       97176.9453                 GW ET     =           0.1049
     SURFACE LEAKAGE     =           0.0000       SURFACE LEAKAGE     =           0.0000
           AG WELLS      =     2162205.7500             AG WELLS      =           3.3624

               TOTAL OUT =   120487448.0000                 TOTAL OUT =          17.1160

                IN - OUT =       -4248.0000                  IN - OUT =       1.1692E-03

     PERCENT DISCREPANCY =          -0.00         PERCENT DISCREPANCY =           0.01






         TIME SUMMARY AT END OF TIME STEP   10 IN STRESS PERIOD    5
                    SECONDS     MINUTES      HOURS       DAYS        YEARS
                    -----------------------------------------------------------
   TIME STEP LENGTH  87667.      1461.1      24.352      1.0147     2.77799E-03
 STRESS PERIOD TIME 8.76667E+05  14611.      243.52      10.147     2.77799E-02
         TOTAL TIME 8.85306E+06 1.47551E+05  2459.2      102.47     0.28054    
1
 
 SOLVING FOR HEAD 
                                                   Max.-Head-Change                         Max.-Flux-Residual
  Residual-Control   Outer-Iter.   Inner-Iter.     Column Row Layer    Maximum-Head-Change  Column Row Layer    Maximum-Flux-Residual          L2-NORM 
          0                 1           2             4    7     1      -0.1025804975E-01       4    7    1        -0.5378863416E+00      0.1428215900E+01
          0                 2           2             4    7     1       0.9978269591E-03       4    7    1         0.5378853176E-01      0.1418699068E+00
          0                 3           1             4    7     1      -0.6794833208E-04       4    7    1        -0.3765199809E-02      0.9843284839E-02

    ------------------------------------------------
       NWT REQUIRED            3 OUTER ITERATIONS 
       AND A TOTAL OF          5 INNER ITERATIONS.
    ------------------------------------------------

 NO OUTPUT CONTROL FOR STRESS PERIOD    5   TIME STEP   11
 
 SOLVING FOR HEAD 
                                                   Max.-Head-Change                         Max.-Flux-Residual
  Residual-Control   Outer-Iter.   Inner-Iter.     Column Row Layer    Maximum-Head-Change  Column Row Layer    Maximum-Flux-Residual          L2-NORM 
          0                 1           2             4    7     1      -0.1016808633E-01       4    7    1        -0.5332301083E+00      0.1387492497E+01
          0                 2           2             4    7     1       0.9890759679E-03       4    7    1         0.5332290803E-01      0.1379273375E+00
          0                 3           1             4    7     1      -0.6735242239E-04       4    7    1        -0.3732606156E-02      0.9579524669E-02

    ------------------------------------------------
       NWT REQUIRED            3 OUTER ITERATIONS 
       AND A TOTAL OF          5 INNER ITERATIONS.
    ------------------------------------------------

 NO OUTPUT CONTROL FOR STRESS PERIOD    5   TIME STEP   12
 
 SOLVING FOR HEAD 
                                                   Max.-Head-Change                         Max.-Flux-Residual
  Residual-Control   Outer-Iter.   Inner-Iter.     Column Row Layer    Maximum-Head-Change  Column Row Layer    Maximum-Flux-Residual          L2-NORM 
          0                 1           2             4    7     1      -0.1007762349E-01       4    7    1        -0.5285447992E+00      0.1349772674E+01
          0                 2           2             4    7     1       0.9802763972E-03       4    7    1         0.5285437688E-01      0.1342676447E+00
          0                 3           1             4    7     1      -0.6675320425E-04       4    7    1        -0.3699808955E-02      0.9333387198E-02

    ------------------------------------------------
       NWT REQUIRED            3 OUTER ITERATIONS 
       AND A TOTAL OF          5 INNER ITERATIONS.
    ------------------------------------------------

 NO OUTPUT CONTROL FOR STRESS PERIOD    5   TIME STEP   13
 
 SOLVING FOR HEAD 
                                                   Max.-Head-Change                         Max.-Flux-Residual
  Residual-Control   Outer-Iter.   Inner-Iter.     Column Row Layer    Maximum-Head-Change  Column Row Layer    Maximum-Flux-Residual          L2-NORM 
          0                 1           2             4    7     1      -0.9986497877E-02       4    7    1        -0.5238209111E+00      0.1315132074E+01
          0                 2           2             4    7     1       0.9714123596E-03       4    7    1         0.5238198798E-01      0.1309004642E+00
          0                 3           1             4    7     1      -0.6614959628E-04       4    7    1        -0.3666741706E-02      0.9106661895E-02

    ------------------------------------------------
       NWT REQUIRED            3 OUTER ITERATIONS 
       AND A TOTAL OF          5 INNER ITERATIONS.
    ------------------------------------------------

 NO OUTPUT CONTROL FOR STRESS PERIOD    5   TIME STEP   14
 
 SOLVING FOR HEAD 
                                                   Max.-Head-Change                         Max.-Flux-Residual
  Residual-Control   Outer-Iter.   Inner-Iter.     Column Row Layer    Maximum-Head-Change  Column Row Layer    Maximum-Flux-Residual          L2-NORM 
          0                 1           2             4    7     1      -0.9894812022E-02       4    7    1        -0.5190645683E+00      0.1283384992E+01
          0                 2           2             4    7     1       0.9624938275E-03       4    7    1         0.5190635375E-01      0.1278102160E+00
          0                 3           1             4    7     1      -0.6554227729E-04       4    7    1        -0.3633447297E-02      0.8898228113E-02

    ------------------------------------------------
       NWT REQUIRED            3 OUTER ITERATIONS 
       AND A TOTAL OF          5 INNER ITERATIONS.
    ------------------------------------------------

 NO OUTPUT CONTROL FOR STRESS PERIOD    5   TIME STEP   15
 
 SOLVING FOR HEAD 
                                                   Max.-Head-Change                         Max.-Flux-Residual
  Residual-Control   Outer-Iter.   Inner-Iter.     Column Row Layer    Maximum-Head-Change  Column Row Layer    Maximum-Flux-Residual          L2-NORM 
          0                 1           2             4    7     1      -0.9802937301E-02       4    7    1        -0.5142956185E+00      0.1254271714E+01
          0                 2           2             4    7     1       0.9535569256E-03       4    7    1         0.5142945893E-01      0.1249706580E+00
          0                 3           1             4    7     1      -0.6493370771E-04       4    7    1        -0.3600064666E-02      0.8705525685E-02

    ------------------------------------------------
       NWT REQUIRED            3 OUTER ITERATIONS 
       AND A TOTAL OF          5 INNER ITERATIONS.
    ------------------------------------------------

 NO OUTPUT CONTROL FOR STRESS PERIOD    5   TIME STEP   16
 
 SOLVING FOR HEAD 
                                                   Max.-Head-Change                         Max.-Flux-Residual
  Residual-Control   Outer-Iter.   Inner-Iter.     Column Row Layer    Maximum-Head-Change  Column Row Layer    Maximum-Flux-Residual          L2-NORM 
          0                 1           2             4    7     1      -0.9710682588E-02       4    7    1        -0.5095035372E+00      0.1227521609E+01
          0                 2           2             4    7     1       0.9445830626E-03       4    7    1         0.5095025110E-01      0.1223581470E+00
          0                 3           1             4    7     1      -0.6432262087E-04       4    7    1        -0.3566520087E-02      0.8528571545E-02

    ------------------------------------------------
       NWT REQUIRED            3 OUTER ITERATIONS 
       AND A TOTAL OF          5 INNER ITERATIONS.
    ------------------------------------------------

 NO OUTPUT CONTROL FOR STRESS PERIOD    5   TIME STEP   17
 
 SOLVING FOR HEAD 
                                                   Max.-Head-Change                         Max.-Flux-Residual
  Residual-Control   Outer-Iter.   Inner-Iter.     Column Row Layer    Maximum-Head-Change  Column Row Layer    Maximum-Flux-Residual          L2-NORM 
          0                 1           2             4    7     1      -0.9618137603E-02       4    7    1        -0.5046930070E+00      0.1202875380E+01
          0                 2           2             4    7     1       0.9355809656E-03       4    7    1         0.5046919847E-01      0.1199474685E+00
          0                 3           1             4    7     1      -0.6370961177E-04       4    7    1        -0.3532846392E-02      0.8365049715E-02

    ------------------------------------------------
       NWT REQUIRED            3 OUTER ITERATIONS 
       AND A TOTAL OF          5 INNER ITERATIONS.
    ------------------------------------------------

 NO OUTPUT CONTROL FOR STRESS PERIOD    5   TIME STEP   18
 
 SOLVING FOR HEAD 
                                                   Max.-Head-Change                         Max.-Flux-Residual
  Residual-Control   Outer-Iter.   Inner-Iter.     Column Row Layer    Maximum-Head-Change  Column Row Layer    Maximum-Flux-Residual          L2-NORM 
          0                 1           2             4    7     1      -0.9525659225E-02       4    7    1        -0.4998835092E+00      0.1180090512E+01
          0                 2           2             4    7     1       0.9265853496E-03       4    7    1         0.4998824920E-01      0.1177158210E+00
          0                 3           1             4    7     1      -0.6309704336E-04       4    7    1        -0.3499179935E-02      0.8212907186E-02

    ------------------------------------------------
       NWT REQUIRED            3 OUTER ITERATIONS 
       AND A TOTAL OF          5 INNER ITERATIONS.
    ------------------------------------------------

 NO OUTPUT CONTROL FOR STRESS PERIOD    5   TIME STEP   19
 
 SOLVING FOR HEAD 
                                                   Max.-Head-Change                         Max.-Flux-Residual
  Residual-Control   Outer-Iter.   Inner-Iter.     Column Row Layer    Maximum-Head-Change  Column Row Layer    Maximum-Flux-Residual          L2-NORM 
          0                 1           2             4    7     1      -0.9433049990E-02       4    7    1        -0.4950636499E+00      0.1158958099E+01
          0                 2           2             4    7     1       0.9175770058E-03       4    7    1         0.4950626387E-01      0.1156422150E+00
          0                 3           1             4    7     1      -0.6248360872E-04       4    7    1        -0.3465440931E-02      0.8071345352E-02

    ------------------------------------------------
       NWT REQUIRED            3 OUTER ITERATIONS 
       AND A TOTAL OF          5 INNER ITERATIONS.
    ------------------------------------------------

 NO OUTPUT CONTROL FOR STRESS PERIOD    5   TIME STEP   20
 
 SOLVING FOR HEAD 
                                                   Max.-Head-Change                         Max.-Flux-Residual
  Residual-Control   Outer-Iter.   Inner-Iter.     Column Row Layer    Maximum-Head-Change  Column Row Layer    Maximum-Flux-Residual          L2-NORM 
          0                 1           2             4    7     1      -0.9340392119E-02       4    7    1        -0.4902378420E+00      0.1139287781E+01
          0                 2           2             4    7     1       0.9085639323E-03       4    7    1         0.4902368378E-01      0.1137100094E+00
          0                 3           1             4    7     1      -0.6186985126E-04       4    7    1        -0.3431660288E-02      0.7939467980E-02

    ------------------------------------------------
       NWT REQUIRED            3 OUTER ITERATIONS 
       AND A TOTAL OF          5 INNER ITERATIONS.
    ------------------------------------------------

 NO OUTPUT CONTROL FOR STRESS PERIOD    5   TIME STEP   21
 
 SOLVING FOR HEAD 
                                                   Max.-Head-Change                         Max.-Flux-Residual
  Residual-Control   Outer-Iter.   Inner-Iter.     Column Row Layer    Maximum-Head-Change  Column Row Layer    Maximum-Flux-Residual          L2-NORM 
          0                 1           2             4    7     1      -0.9248031388E-02       4    7    1        -0.4854251771E+00      0.1120913668E+01
          0                 2           2             4    7     1       0.8995797638E-03       4    7    1         0.4854241804E-01      0.1118271119E+00
          0                 3           1             4    7     1      -0.6125806340E-04       4    7    1        -0.3397971686E-02      0.7810886967E-02

    ------------------------------------------------
       NWT REQUIRED            3 OUTER ITERATIONS 
       AND A TOTAL OF          5 INNER ITERATIONS.
    ------------------------------------------------

 NO OUTPUT CONTROL FOR STRESS PERIOD    5   TIME STEP   22
 
 SOLVING FOR HEAD 
                                                   Max.-Head-Change                         Max.-Flux-Residual
  Residual-Control   Outer-Iter.   Inner-Iter.     Column Row Layer    Maximum-Head-Change  Column Row Layer    Maximum-Flux-Residual          L2-NORM 
          0                 1           2             4    7     1      -0.9155754837E-02       4    7    1        -0.4806138064E+00      0.1103736956E+01
          0                 2           2             4    7     1       0.8906037849E-03       4    7    1         0.4806128183E-01      0.1102083647E+00
          0                 3           1             4    7     1      -0.6064683195E-04       4    7    1        -0.3364292113E-02      0.7699500034E-02

    ------------------------------------------------
       NWT REQUIRED            3 OUTER ITERATIONS 
       AND A TOTAL OF          5 INNER ITERATIONS.
    ------------------------------------------------

 NO OUTPUT CONTROL FOR STRESS PERIOD    5   TIME STEP   23
 
 SOLVING FOR HEAD 
                                                   Max.-Head-Change                         Max.-Flux-Residual
  Residual-Control   Outer-Iter.   Inner-Iter.     Column Row Layer    Maximum-Head-Change  Column Row Layer    Maximum-Flux-Residual          L2-NORM 
          0                 1           2             4    7     1      -0.9063642500E-02       4    7    1        -0.4758075769E+00      0.1087660409E+01
          0                 2           2             4    7     1       0.8816437811E-03       4    7    1         0.4758065983E-01      0.1086224753E+00
          0                 3           1             4    7     1      -0.6003668921E-04       4    7    1        -0.3330648561E-02      0.7590282678E-02

    ------------------------------------------------
       NWT REQUIRED            3 OUTER ITERATIONS 
       AND A TOTAL OF          5 INNER ITERATIONS.
    ------------------------------------------------

 NO OUTPUT CONTROL FOR STRESS PERIOD    5   TIME STEP   24
 
 SOLVING FOR HEAD 
                                                   Max.-Head-Change                         Max.-Flux-Residual
  Residual-Control   Outer-Iter.   Inner-Iter.     Column Row Layer    Maximum-Head-Change  Column Row Layer    Maximum-Flux-Residual          L2-NORM 
          0                 1           2             4    7     1      -0.8971762009E-02       4    7    1        -0.4710103402E+00      0.1072461045E+01
          0                 2           2             4    7     1       0.8727063306E-03       4    7    1         0.4710093717E-01      0.1071206277E+00
          0                 3           1             4    7     1      -0.5942808176E-04       4    7    1        -0.3297067958E-02      0.7486699777E-02

    ------------------------------------------------
       NWT REQUIRED            3 OUTER ITERATIONS 
       AND A TOTAL OF          5 INNER ITERATIONS.
    ------------------------------------------------

 NO OUTPUT CONTROL FOR STRESS PERIOD    5   TIME STEP   25
 
 SOLVING FOR HEAD 
                                                   Max.-Head-Change                         Max.-Flux-Residual
  Residual-Control   Outer-Iter.   Inner-Iter.     Column Row Layer    Maximum-Head-Change  Column Row Layer    Maximum-Flux-Residual          L2-NORM 
          0                 1           2             4    7     1      -0.8880449261E-02       4    7    1        -0.4662406093E+00      0.1058055169E+01
          0                 2           2             4    7     1       0.8638241064E-03       4    7    1         0.4662396515E-01      0.1056961603E+00
          0                 3           1             4    7     1      -0.5882323457E-04       4    7    1        -0.3263679862E-02      0.7388525712E-02

    ------------------------------------------------
       NWT REQUIRED            3 OUTER ITERATIONS 
       AND A TOTAL OF          5 INNER ITERATIONS.
    ------------------------------------------------

 NO OUTPUT CONTROL FOR STRESS PERIOD    5   TIME STEP   26
 
 SOLVING FOR HEAD 
                                                   Max.-Head-Change                         Max.-Flux-Residual
  Residual-Control   Outer-Iter.   Inner-Iter.     Column Row Layer    Maximum-Head-Change  Column Row Layer    Maximum-Flux-Residual          L2-NORM 
          0                 1           2             4    7     1      -0.8789477040E-02       4    7    1        -0.4614858466E+00      0.1044364394E+01
          0                 2           2             4    7     1       0.8549750070E-03       4    7    1         0.4614848997E-01      0.1043411981E+00
          0                 3           1             4    7     1      -0.5822064407E-04       4    7    1        -0.3230396590E-02      0.7295067098E-02

    ------------------------------------------------
       NWT REQUIRED            3 OUTER ITERATIONS 
       AND A TOTAL OF          5 INNER ITERATIONS.
    ------------------------------------------------

 NO OUTPUT CONTROL FOR STRESS PERIOD    5   TIME STEP   27
 
 SOLVING FOR HEAD 
                                                   Max.-Head-Change                         Max.-Flux-Residual
  Residual-Control   Outer-Iter.   Inner-Iter.     Column Row Layer    Maximum-Head-Change  Column Row Layer    Maximum-Flux-Residual          L2-NORM 
          0                 1           2             4    7     1      -0.8699179321E-02       4    7    1        -0.4567640452E+00      0.1031342624E+01
          0                 2           2             4    7     1       0.8461915196E-03       4    7    1         0.4567631103E-01      0.1030508873E+00
          0                 3           1             4    7     1      -0.5762252030E-04       4    7    1        -0.3197344028E-02      0.7205774217E-02

    ------------------------------------------------
       NWT REQUIRED            3 OUTER ITERATIONS 
       AND A TOTAL OF          5 INNER ITERATIONS.
    ------------------------------------------------

 NO OUTPUT CONTROL FOR STRESS PERIOD    5   TIME STEP   28
 
 SOLVING FOR HEAD 
                                                   Max.-Head-Change                         Max.-Flux-Residual
  Residual-Control   Outer-Iter.   Inner-Iter.     Column Row Layer    Maximum-Head-Change  Column Row Layer    Maximum-Flux-Residual          L2-NORM 
          0                 1           2             4    7     1      -0.8609216120E-02       4    7    1        -0.4520628672E+00      0.1105963936E+01
          0                 2           2             4    7     1       0.8374405718E-03       4    7    1         0.4520619437E-01      0.1101840531E+00
          0                 3           1             4    7     1      -0.5702661321E-04       4    7    1        -0.3164435845E-02      0.7675610040E-02

    ------------------------------------------------
       NWT REQUIRED            3 OUTER ITERATIONS 
       AND A TOTAL OF          5 INNER ITERATIONS.
    ------------------------------------------------

 NO OUTPUT CONTROL FOR STRESS PERIOD    5   TIME STEP   29
 
 SOLVING FOR HEAD 
                                                   Max.-Head-Change                         Max.-Flux-Residual
  Residual-Control   Outer-Iter.   Inner-Iter.     Column Row Layer    Maximum-Head-Change  Column Row Layer    Maximum-Flux-Residual          L2-NORM 
          0                 1           2             4   13     1       0.2587069850E-01       4   13    1         0.1498459776E+01      0.2827344112E+01
          0                 2           2             4   13     1      -0.2857981017E-02       4   13    1        -0.1734794012E+00      0.2895773059E+00
          0                 3           2             4   13     1       0.1916780442E-03       4   13    1         0.1196285864E-01      0.1953679005E-01
          0                 4           1             4   13     1      -0.7450233522E-05       4   13    1        -0.4781281004E-03      0.7536538511E-03

    ------------------------------------------------
       NWT REQUIRED            4 OUTER ITERATIONS 
       AND A TOTAL OF          7 INNER ITERATIONS.
    ------------------------------------------------

 NO OUTPUT CONTROL FOR STRESS PERIOD    5   TIME STEP   30



 STREAM LISTING     PERIOD      5   STEP       30

 LAYER ROW COL. STREAM  RCH.  FLOW INTO     FLOW TO   FLOW OUT OF   OVRLND.     DIRECT     STREAM       STREAM     STREAM     STREAM   STREAMBED  STREAMBED
                SEG.NO.  NO.  STRM. RCH.    AQUIFER    STRM. RCH.    RUNOFF     PRECIP       ET          HEAD       DEPTH      WIDTH   CONDCTNC.   GRADIENT

   1    1    1     1     1    9.9000E+01  4.7281E-01   9.8528E+01  0.000E+00  0.000E+00  0.000E+00  1.09484E+03  1.796E+00  2.191E+01  9.859E-02  1.599E+00
   1    2    2     1     2    9.8528E+01  7.3365E-01   9.7794E+01  0.000E+00  0.000E+00  0.000E+00  1.08985E+03  1.793E+00  2.187E+01  1.531E-01  1.598E+00
   1    3    3     1     3    9.7794E+01  6.2707E-01   9.7167E+01  0.000E+00  0.000E+00  0.000E+00  1.08421E+03  1.791E+00  2.181E+01  1.309E-01  1.597E+00
   1    3    4     1     4    9.7167E+01  5.7859E-01   9.6588E+01  0.000E+00  0.000E+00  0.000E+00  1.07920E+03  1.789E+00  2.177E+01  1.208E-01  1.596E+00
   1    4    5     2     1    9.4588E+01  4.4299E-01   9.4145E+01  0.000E+00  0.000E+00  0.000E+00  1.07461E+03  2.679E+00  1.200E+01  7.800E-02  1.893E+00
   1    5    6     2     2    9.4145E+01  3.4036E-01   9.3805E+01  0.000E+00  0.000E+00  0.000E+00  1.06918E+03  2.673E+00  1.200E+01  6.000E-02  1.891E+00
   1    6    6     2     3    9.3805E+01  3.4001E-01   9.3465E+01  0.000E+00  0.000E+00  0.000E+00  1.06446E+03  2.667E+00  1.200E+01  6.000E-02  1.889E+00
   1    7    6     2     4    9.3465E+01  3.3967E-01   9.3125E+01  0.000E+00  0.000E+00  0.000E+00  1.05974E+03  2.661E+00  1.200E+01  6.000E-02  1.887E+00
   1    8    6     2     5    9.3125E+01  3.3932E-01   9.2786E+01  0.000E+00  0.000E+00  0.000E+00  1.05501E+03  2.655E+00  1.200E+01  6.000E-02  1.885E+00
   1    3    5     3     1    2.0000E+00  2.8252E-01   1.7175E+00  0.000E+00  0.000E+00  0.000E+00  1.07555E+03  1.909E+00  9.636E+00  7.227E-02  1.955E+00
   1    3    6     3     2    1.7175E+00  2.4905E-01   1.4684E+00  0.000E+00  0.000E+00  0.000E+00  1.07264E+03  1.727E+00  8.909E+00  6.682E-02  1.864E+00
   1    3    7     3     3    1.4684E+00  1.9718E-01   1.2712E+00  0.000E+00  0.000E+00  0.000E+00  1.06987E+03  1.555E+00  8.218E+00  5.547E-02  1.777E+00
   1    4    8     3     4    1.2712E+00  2.2567E-01   1.0456E+00  0.000E+00  0.000E+00  0.000E+00  1.06682E+03  1.364E+00  7.455E+00  6.709E-02  1.682E+00
   1    5    8     3     5    1.0456E+00  1.5790E-01   8.8768E-01  0.000E+00  0.000E+00  0.000E+00  1.06362E+03  1.164E+00  6.655E+00  4.991E-02  1.582E+00
   1    6    8     3     6    8.8768E-01  5.5980E-02   8.3170E-01  0.000E+00  0.000E+00  0.000E+00  1.06158E+03  1.036E+00  6.145E+00  1.844E-02  1.518E+00
   1    5   10     4     1    1.0000E+01  9.0919E-02   9.9091E+00  0.000E+00  0.000E+00  0.000E+00  1.07836E+03  6.368E-01  1.000E+01  2.500E-02  1.212E+00
   1    5    9     4     2    9.9091E+00  1.8158E-01   9.7275E+00  0.000E+00  0.000E+00  0.000E+00  1.07154E+03  6.315E-01  1.000E+01  5.000E-02  1.211E+00
   1    6    8     4     3    9.7275E+00  1.2689E-01   9.6006E+00  0.000E+00  0.000E+00  0.000E+00  1.06381E+03  6.256E-01  1.000E+01  3.500E-02  1.209E+00
   1    6    8     5     1    1.0432E+01  2.2686E-01   1.0205E+01  0.000E+00  0.000E+00  0.000E+00  1.05868E+03  6.790E-01  1.542E+01  6.166E-02  1.226E+00
   1    7    7     5     2    1.0205E+01  2.7894E-01   9.9265E+00  0.000E+00  0.000E+00  0.000E+00  1.05417E+03  6.732E-01  1.519E+01  7.594E-02  1.224E+00
   1    8    7     5     3    9.9265E+00  1.9221E-01   9.7343E+00  0.000E+00  0.000E+00  0.000E+00  1.04992E+03  6.676E-01  1.497E+01  5.241E-02  1.223E+00
   1    8    6     5     4    9.7343E+00  1.3577E-01   9.5985E+00  0.000E+00  0.000E+00  0.000E+00  1.04691E+03  6.637E-01  1.482E+01  3.706E-02  1.221E+00
   1    9    6     6     1    1.0238E+02  3.5054E-01   1.0203E+02  0.000E+00  0.000E+00  0.000E+00  1.04557E+03  2.842E+00  1.200E+01  6.000E-02  1.947E+00
   1   10    7     6     2    1.0203E+02  3.5018E-01   1.0168E+02  0.000E+00  0.000E+00  0.000E+00  1.04102E+03  2.836E+00  1.200E+01  6.000E-02  1.945E+00
   1   11    7     6     3    1.0168E+02  3.4983E-01   1.0133E+02  0.000E+00  0.000E+00  0.000E+00  1.03647E+03  2.831E+00  1.200E+01  6.000E-02  1.944E+00
   1   12    7     6     4    1.0133E+02  3.4948E-01   1.0098E+02  0.000E+00  0.000E+00  0.000E+00  1.03192E+03  2.825E+00  1.200E+01  6.000E-02  1.942E+00
   1   13    7     6     5    1.0098E+02  3.7134E-02   1.0095E+02  0.000E+00  0.000E+00  0.000E+00  1.02873E+03  2.821E+00  1.200E+01  2.400E-02  5.157E-01
   1   14    9     7     1    1.5000E+02  1.3318E+00   1.4867E+02  0.000E+00  0.000E+00  0.000E+00  1.03987E+03  2.288E+00  5.529E+01  5.593E-01  7.937E-01
   1   13    8     7     2    1.4867E+02  1.8109E+00   1.4686E+02  0.000E+00  0.000E+00  0.000E+00  1.03478E+03  2.279E+00  5.526E+01  6.148E-01  9.818E-01
   1   13    7     7     3    1.4686E+02  1.4000E+00   1.4546E+02  0.000E+00  0.000E+00  0.000E+00  1.02969E+03  2.271E+00  5.522E+01  5.585E-01  8.356E-01
   1   13    6     8     1    2.4640E+02  1.1761E+00   2.4523E+02  0.000E+00  0.000E+00  0.000E+00  1.02527E+03  3.390E+00  4.916E+01  5.009E-01  7.826E-01
   1   13    5     8     2    2.4523E+02  3.1437E-01   2.4491E+02  0.000E+00  0.000E+00  0.000E+00  1.01901E+03  3.386E+00  4.910E+01  5.003E-01  2.094E-01
   1   13    4     8     3    2.4491E+02 -1.2803E+00   2.4619E+02  0.000E+00  0.000E+00  0.000E+00  1.01276E+03  3.389E+00  4.914E+01  5.007E+00 -8.523E-02
   1   13    3     8     4    2.4619E+02 -2.5267E+00   2.4872E+02  0.000E+00  0.000E+00  0.000E+00  1.00652E+03  3.399E+00  4.928E+01  5.022E+00 -1.677E-01
   1   13    2     8     5    2.4872E+02 -1.3015E+00   2.5002E+02  0.000E+00  0.000E+00  0.000E+00  1.00028E+03  3.408E+00  4.942E+01  5.036E+00 -8.614E-02
   1   13    1     8     6    2.5002E+02 -1.2937E+00   2.5132E+02  0.000E+00  0.000E+00  0.000E+00  9.95290E+02  3.415E+00  4.952E+01  3.028E+00 -1.424E-01





UNSATURATED ZONE PACKAGE VOLUMETRIC BUDGET FOR  TIME STEP    30 STRESS PERIOD    5
  ------------------------------------------------------------------------------



     CUMULATIVE VOLUMES      L**3       RATES FOR THIS TIME STEP      L**3/T
     ------------------                 ------------------------

           IN:                                      IN:
           ---                                      ---
        INFILTRATION =    54619070.2737          INFILTRATION =           7.8531

          OUT:                                     OUT:
          ----                                     ----
              UZF ET =    35820929.7180                UZF ET =           7.8575
        UZF RECHARGE =       73224.0000          UZF RECHARGE =       0.0000E+00

            IN - OUT =    18724916.5557              IN - OUT =      -4.3853E-03

          STORAGE:                                 STORAGE:
          --------                                 --------
      STORAGE CHANGE =    18724916.1414        STORAGE CHANGE =      -4.3853E-03

 PERCENT DISCREPANCY IS DIFFERENCE BETWEEN IN-OUT MINUS CHANGE IN STORAGE
 DIVIDED BY THE AVERAGE OF IN AND OUT TIMES 100

 PERCENT DISCREPANCY =           0.00     PERCENT DISCREPANCY =           0.00






1
  VOLUMETRIC BUDGET FOR AGRICULTURAL FIELDS AT TIME STEP   30, STRESS PERIOD   5
  ------------------------------------------------------------------------------

     CUMULATIVE VOLUMES      L**3       RATES FOR THIS TIME STEP      L**3/T
     ------------------                 ------------------------

           IN:                                      IN:
           ---                                      ---
               AG WELLS  =     8178947.0000                 AG WELLS  =           3.4456
      DIVERSION SEGMENTS =           0.0000        DIVERSION SEGMENTS =           0.0000
           GW IRRIGATION =           0.0000             GW IRRIGATION =           0.0000
           SW IRRIGATION =           0.0000             SW IRRIGATION =           0.0000
        SYSTEM LOSSES GW =           0.0000          SYSTEM LOSSES GW =           0.0000
        SYSTEM LOSSES SW =           0.0000          SYSTEM LOSSES SW =           0.0000

                TOTAL IN =     8178947.0000                  TOTAL IN =           3.4456

          OUT:                                     OUT:
          ----                                     ----
               AG WELLS  =           0.0000                 AG WELLS  =           0.0000
      DIVERSION SEGMENTS =           0.0000        DIVERSION SEGMENTS =           0.0000
           GW IRRIGATION =     8178947.0000             GW IRRIGATION =           3.4456
           SW IRRIGATION =           0.0000             SW IRRIGATION =           0.0000
        SYSTEM LOSSES GW =           0.0000          SYSTEM LOSSES GW =           0.0000
        SYSTEM LOSSES SW =           0.0000          SYSTEM LOSSES SW =           0.0000

               TOTAL OUT =     8178947.0000                 TOTAL OUT =           3.4456

                IN - OUT =           0.0000                  IN - OUT =           0.0000

     PERCENT DISCREPANCY =           0.00         PERCENT DISCREPANCY =           0.00



1
  VOLUMETRIC BUDGET FOR ENTIRE MODEL AT END OF TIME STEP   30, STRESS PERIOD   5
  ------------------------------------------------------------------------------

     CUMULATIVE VOLUMES      L**3       RATES FOR THIS TIME STEP      L**3/T
     ------------------                 ------------------------

           IN:                                      IN:
           ---                                      ---
             STORAGE     =    16367851.0000               STORAGE     =           3.2060
       CONSTANT HEAD     =           0.0000         CONSTANT HEAD     =           0.0000
     HEAD DEP BOUNDS     =     3027432.2500       HEAD DEP BOUNDS     =           0.2855
      STREAM LEAKAGE     =   129797440.0000        STREAM LEAKAGE     =          14.0862
        UZF RECHARGE     =       73223.9531          UZF RECHARGE     =           0.0000
               GW ET     =           0.0000                 GW ET     =           0.0000
     SURFACE LEAKAGE     =           0.0000       SURFACE LEAKAGE     =           0.0000
           AG WELLS      =           0.0000             AG WELLS      =           0.0000

                TOTAL IN =   149265936.0000                  TOTAL IN =          17.5777

          OUT:                                     OUT:
          ----                                     ----
             STORAGE     =    25921558.0000               STORAGE     =           7.3839
       CONSTANT HEAD     =           0.0000         CONSTANT HEAD     =           0.0000
     HEAD DEP BOUNDS     =     3102149.5000       HEAD DEP BOUNDS     =           0.2933
      STREAM LEAKAGE     =   111913152.0000        STREAM LEAKAGE     =           6.4022
        UZF RECHARGE     =           0.0000          UZF RECHARGE     =           0.0000
               GW ET     =      152747.5000                 GW ET     =       5.2636E-02
     SURFACE LEAKAGE     =           0.0000       SURFACE LEAKAGE     =           0.0000
           AG WELLS      =     8178947.0000             AG WELLS      =           3.4456

               TOTAL OUT =   149268560.0000                 TOTAL OUT =          17.5777

                IN - OUT =       -2624.0000                  IN - OUT =       1.7166E-05

     PERCENT DISCREPANCY =          -0.00         PERCENT DISCREPANCY =           0.00






         TIME SUMMARY AT END OF TIME STEP   30 IN STRESS PERIOD    5
                    SECONDS     MINUTES      HOURS       DAYS        YEARS
                    -----------------------------------------------------------
   TIME STEP LENGTH  87667.      1461.1      24.352      1.0147     2.77799E-03
 STRESS PERIOD TIME 2.63000E+06  43833.      730.56      30.440     8.33397E-02
         TOTAL TIME 1.06064E+07 1.76773E+05  2946.2      122.76     0.33610    
1
1
                            STRESS PERIOD NO.    6, LENGTH =   2630000.    
                            -----------------------------------------------

                              NUMBER OF TIME STEPS =    30

                               MULTIPLIER FOR DELT =     1.000

                            INITIAL TIME STEP SIZE =   87666.66    

 REUSING NON-PARAMETER GHB CELLS FROM LAST STRESS PERIOD

      2 GHB CELLS

 REUSING STREAM SEGMENT DATA FROM LAST STRESS PERIOD



            AREAL INFILTRATION RATE
 READING ON UNIT   19 WITH FORMAT: (10F4.0)            

            1           2           3           4           5           6           7           8           9          10
 ........................................................................................................................
   1   1.2000E-09   0.000       0.000       0.000       0.000       0.000       0.000       0.000       0.000       0.000    
   2   2.1000E-09  2.0000E-09  8.0000E-10  8.5000E-09   0.000       0.000       0.000       0.000       0.000       0.000    
   3   5.0000E-10  1.1000E-09  8.8000E-09  5.5000E-09   0.000       0.000       0.000       0.000       0.000       0.000    
   4   8.5000E-09  1.1000E-09  1.1000E-09  1.1000E-09  2.0000E-09   0.000       0.000       0.000       0.000       0.000    
   5   8.5000E-09  1.1000E-09  1.1000E-09  1.1000E-09  1.1000E-09   0.000       0.000       0.000       0.000       0.000    
   6   8.5000E-09  5.2000E-09  2.1000E-09  1.1000E-09  1.5000E-09   0.000       0.000       0.000       0.000       0.000    
   7   8.5000E-09  5.2000E-09  2.1000E-09  1.2000E-09  2.0000E-09   0.000       0.000       0.000       0.000       0.000    
   8   5.0000E-10  5.2000E-09  2.1000E-09  1.2000E-09  5.0000E-09   0.000       0.000       0.000       0.000       0.000    
   9   5.0000E-10  5.2000E-09  2.1000E-09  1.2000E-09  5.0000E-09   0.000       0.000       0.000       0.000       0.000    
  10   5.0000E-10  5.2000E-09  2.1000E-09  1.2000E-09  5.8000E-09   0.000       0.000       0.000       0.000       0.000    
  11   1.0000E-10  1.1000E-09  1.1000E-09  1.2000E-09  5.0000E-09   0.000       0.000       0.000       0.000       0.000    
  12   1.1000E-09  1.1000E-09  1.1000E-09  1.1000E-09  2.0000E-09   0.000       0.000       0.000       0.000       0.000    
  13   1.1000E-09  2.2000E-09  2.2000E-09  2.1000E-09  1.0000E-09   0.000       0.000       0.000       0.000       0.000    
  14   2.0000E-10  5.5000E-09  5.5000E-09  5.2000E-09  1.0000E-09   0.000       0.000       0.000       0.000       0.000    
  15    0.000      8.8000E-09  8.8000E-09   0.000       0.000       0.000       0.000       0.000       0.000       0.000    

                  ET RATE =  5.000000E-08

 USING ET EXTINCTION DEPTH FROM PREVIOUS STRESS PERIOD. CURRENT PERIOD IS:       6

 USING EXTINCTION WATER CONTENT FROM PREVIOUS STRESS PERIOD. CURRENT PERIOD IS:       6

 USING AIR ENTRY PRESSURE FROM PREVIOUS STRESS PERIOD. CURRENT PERIOD IS:       6

 USING ROOT PRESSURE HEAD FROM PREVIOUS STRESS PERIOD. CURRENT PERIOD IS:       6

 USING ROOT ACTIVITY FROM PREVIOUS STRESS PERIOD. CURRENT PERIOD IS:       6

 PROCESSING AG STRESS PERIOD DATA

 READING AG STRESS PERIOD DATA

 READING IRRIGATION WELL

 END PROCESSING AG STRESS PERIOD DATA OPTIONS
 
 SOLVING FOR HEAD 
                                                   Max.-Head-Change                         Max.-Flux-Residual
  Residual-Control   Outer-Iter.   Inner-Iter.     Column Row Layer    Maximum-Head-Change  Column Row Layer    Maximum-Flux-Residual          L2-NORM 
          0                 1           2             2   13     1       0.2249248738E-01       4   13    1         0.1300839865E+01      0.3426943798E+01
          0                 2           2             4   13     1      -0.2084170459E-02       4   13    1        -0.1286972244E+00      0.3378914956E+00
          0                 3           2             4   13     1       0.1397969115E-03       4   13    1         0.8875619224E-02      0.2321224178E-01
          0                 4           1             4   13     1      -0.5438745156E-05       4   13    1        -0.3550703113E-03      0.9225299008E-03

    ------------------------------------------------
       NWT REQUIRED            4 OUTER ITERATIONS 
       AND A TOTAL OF          7 INNER ITERATIONS.
    ------------------------------------------------

 NO OUTPUT CONTROL FOR STRESS PERIOD    6   TIME STEP    1
 
 SOLVING FOR HEAD 
                                                   Max.-Head-Change                         Max.-Flux-Residual
  Residual-Control   Outer-Iter.   Inner-Iter.     Column Row Layer    Maximum-Head-Change  Column Row Layer    Maximum-Flux-Residual          L2-NORM 
          0                 1           2             2   13     1       0.2062659204E-01       2   13    1         0.1172447360E+01      0.3219516596E+01
          0                 2           2             4    7     1       0.1948764816E-02       2   13    1        -0.1118292972E+00      0.3178608352E+00
          0                 3           2             4    7     1      -0.1327037086E-03       4   13    1         0.7680274555E-02      0.2187499077E-01
          0                 4           1             4    7     1       0.5280404526E-05       4   13    1        -0.3065856235E-03      0.8712129300E-03

    ------------------------------------------------
       NWT REQUIRED            4 OUTER ITERATIONS 
       AND A TOTAL OF          7 INNER ITERATIONS.
    ------------------------------------------------

 NO OUTPUT CONTROL FOR STRESS PERIOD    6   TIME STEP    2
 
 SOLVING FOR HEAD 
                                                   Max.-Head-Change                         Max.-Flux-Residual
  Residual-Control   Outer-Iter.   Inner-Iter.     Column Row Layer    Maximum-Head-Change  Column Row Layer    Maximum-Flux-Residual          L2-NORM 
          0                 1           2             4    7     1      -0.1989097432E-01       2   13    1         0.1074996992E+01      0.3066130974E+01
          0                 2           2             4    7     1       0.1934844220E-02       4    7    1         0.1041686890E+00      0.3031661398E+00
          0                 3           2             4    7     1      -0.1317557694E-03       4    7    1        -0.7291814594E-02      0.2090576892E-01
          0                 4           1             4    7     1       0.5242685271E-05       4    7    1         0.2982356259E-03      0.8357833970E-03

    ------------------------------------------------
       NWT REQUIRED            4 OUTER ITERATIONS 
       AND A TOTAL OF          7 INNER ITERATIONS.
    ------------------------------------------------

 NO OUTPUT CONTROL FOR STRESS PERIOD    6   TIME STEP    3
 
 SOLVING FOR HEAD 
                                                   Max.-Head-Change                         Max.-Flux-Residual
  Residual-Control   Outer-Iter.   Inner-Iter.     Column Row Layer    Maximum-Head-Change  Column Row Layer    Maximum-Flux-Residual          L2-NORM 
          0                 1           2             4    7     1      -0.1974275336E-01       4    7    1        -0.1034193007E+01      0.2934711872E+01
          0                 2           2             4    7     1       0.1920426232E-02       4    7    1         0.1034189527E+00      0.2905721766E+00
          0                 3           2             4    7     1      -0.1307739590E-03       4    7    1        -0.7239333114E-02      0.2007437444E-01
          0                 4           1             4    7     1       0.5203617871E-05       4    7    1         0.2960891202E-03      0.8047429356E-03

    ------------------------------------------------
       NWT REQUIRED            4 OUTER ITERATIONS 
       AND A TOTAL OF          7 INNER ITERATIONS.
    ------------------------------------------------

 NO OUTPUT CONTROL FOR STRESS PERIOD    6   TIME STEP    4
 
 SOLVING FOR HEAD 
                                                   Max.-Head-Change                         Max.-Flux-Residual
  Residual-Control   Outer-Iter.   Inner-Iter.     Column Row Layer    Maximum-Head-Change  Column Row Layer    Maximum-Flux-Residual          L2-NORM 
          0                 1           2             4    7     1      -0.1959005320E-01       4    7    1        -0.1026438110E+01      0.2821643767E+01
          0                 2           2             4    7     1       0.1905572563E-02       4    7    1         0.1026434552E+00      0.2797299628E+00
          0                 3           2             4    7     1      -0.1297624802E-03       4    7    1        -0.7185048339E-02      0.1935742066E-01
          0                 4           1             4    7     1       0.5163370183E-05       4    7    1         0.2938688658E-03      0.7776385476E-03

    ------------------------------------------------
       NWT REQUIRED            4 OUTER ITERATIONS 
       AND A TOTAL OF          7 INNER ITERATIONS.
    ------------------------------------------------

 NO OUTPUT CONTROL FOR STRESS PERIOD    6   TIME STEP    5
 
 SOLVING FOR HEAD 
                                                   Max.-Head-Change                         Max.-Flux-Residual
  Residual-Control   Outer-Iter.   Inner-Iter.     Column Row Layer    Maximum-Head-Change  Column Row Layer    Maximum-Flux-Residual          L2-NORM 
          0                 1           2             4    7     1      -0.1943344546E-01       4    7    1        -0.1018457049E+01      0.2723881230E+01
          0                 2           2             4    7     1       0.1890338813E-02       4    7    1         0.1018453428E+00      0.2703455753E+00
          0                 3           2             4    7     1      -0.1287251190E-03       4    7    1        -0.7129180493E-02      0.1873729907E-01
          0                 4           1             4    7     1       0.5122092333E-05       4    7    1         0.2915838736E-03      0.7551163955E-03

    ------------------------------------------------
       NWT REQUIRED            4 OUTER ITERATIONS 
       AND A TOTAL OF          7 INNER ITERATIONS.
    ------------------------------------------------

 NO OUTPUT CONTROL FOR STRESS PERIOD    6   TIME STEP    6
 
 SOLVING FOR HEAD 
                                                   Max.-Head-Change                         Max.-Flux-Residual
  Residual-Control   Outer-Iter.   Inner-Iter.     Column Row Layer    Maximum-Head-Change  Column Row Layer    Maximum-Flux-Residual          L2-NORM 
          0                 1           2             4    7     1      -0.1927345078E-01       4    7    1        -0.1010278988E+01      0.2638833009E+01
          0                 2           2             4    7     1       0.1874775623E-02       4    7    1         0.1010275316E+00      0.2621707503E+00
          0                 3           2             4    7     1      -0.1276653245E-03       4    7    1        -0.7071933750E-02      0.1819586008E-01
          0                 4           1             4    7     1       0.5079922474E-05       4    7    1         0.2892424809E-03      0.7350613356E-03

    ------------------------------------------------
       NWT REQUIRED            4 OUTER ITERATIONS 
       AND A TOTAL OF          7 INNER ITERATIONS.
    ------------------------------------------------

 NO OUTPUT CONTROL FOR STRESS PERIOD    6   TIME STEP    7
 
 SOLVING FOR HEAD 
                                                   Max.-Head-Change                         Max.-Flux-Residual
  Residual-Control   Outer-Iter.   Inner-Iter.     Column Row Layer    Maximum-Head-Change  Column Row Layer    Maximum-Flux-Residual          L2-NORM 
          0                 1           2             4    7     1      -0.1911054787E-01       4    7    1        -0.1001929607E+01      0.2564373649E+01
          0                 2           2             4    7     1       0.1858929560E-02       4    7    1         0.1001925896E+00      0.2550017564E+00
          0                 3           2             4    7     1      -0.1265862664E-03       4    7    1        -0.7013487805E-02      0.1771843732E-01
          0                 4           1             4    7     1       0.5036985405E-05       4    7    1         0.2868520262E-03      0.7163052686E-03

    ------------------------------------------------
       NWT REQUIRED            4 OUTER ITERATIONS 
       AND A TOTAL OF          7 INNER ITERATIONS.
    ------------------------------------------------

 NO OUTPUT CONTROL FOR STRESS PERIOD    6   TIME STEP    8
 
 SOLVING FOR HEAD 
                                                   Max.-Head-Change                         Max.-Flux-Residual
  Residual-Control   Outer-Iter.   Inner-Iter.     Column Row Layer    Maximum-Head-Change  Column Row Layer    Maximum-Flux-Residual          L2-NORM 
          0                 1           2             4    7     1      -0.1894489679E-01       4    7    1        -0.9934185518E+00      0.2498720735E+01
          0                 2           2             4    7     1       0.1842816190E-02       4    7    1         0.9934148118E-01      0.2486678216E+00
          0                 3           2             4    7     1      -0.1254890063E-03       4    7    1        -0.6953910237E-02      0.1729627813E-01
          0                 4           1             4    7     1       0.4993324645E-05       4    7    1         0.2844152966E-03      0.7002241224E-03

    ------------------------------------------------
       NWT REQUIRED            4 OUTER ITERATIONS 
       AND A TOTAL OF          7 INNER ITERATIONS.
    ------------------------------------------------

 NO OUTPUT CONTROL FOR STRESS PERIOD    6   TIME STEP    9
 
 SOLVING FOR HEAD 
                                                   Max.-Head-Change                         Max.-Flux-Residual
  Residual-Control   Outer-Iter.   Inner-Iter.     Column Row Layer    Maximum-Head-Change  Column Row Layer    Maximum-Flux-Residual          L2-NORM 
          0                 1           2             4    7     1      -0.1877719157E-01       4    7    1        -0.9847835233E+00      0.2440410225E+01
          0                 2           2             4    7     1       0.1826503022E-02       4    7    1         0.9847797642E-01      0.2430300744E+00
          0                 3           2             4    7     1      -0.1243781403E-03       4    7    1        -0.6893464898E-02      0.1691912498E-01
          0                 4           1             4    7     1       0.4949122323E-05       4    7    1         0.2819430852E-03      0.6858477460E-03

    ------------------------------------------------
       NWT REQUIRED            4 OUTER ITERATIONS 
       AND A TOTAL OF          7 INNER ITERATIONS.
    ------------------------------------------------

 NO OUTPUT CONTROL FOR STRESS PERIOD    6   TIME STEP   10
 
 SOLVING FOR HEAD 
                                                   Max.-Head-Change                         Max.-Flux-Residual
  Residual-Control   Outer-Iter.   Inner-Iter.     Column Row Layer    Maximum-Head-Change  Column Row Layer    Maximum-Flux-Residual          L2-NORM 
          0                 1           2             4    7     1      -0.1860779202E-01       4    7    1        -0.9760446129E+00      0.2388242402E+01
          0                 2           2             4    7     1       0.1810025054E-02       4    7    1         0.9760408431E-01      0.2379746515E+00
          0                 3           2             4    7     1      -0.1232560515E-03       4    7    1        -0.6832292416E-02      0.1658073727E-01
          0                 4           1             4    7     1       0.4904473307E-05       4    7    1         0.2794411198E-03      0.6734184048E-03

    ------------------------------------------------
       NWT REQUIRED            4 OUTER ITERATIONS 
       AND A TOTAL OF          7 INNER ITERATIONS.
    ------------------------------------------------

 NO OUTPUT CONTROL FOR STRESS PERIOD    6   TIME STEP   11
 
 SOLVING FOR HEAD 
                                                   Max.-Head-Change                         Max.-Flux-Residual
  Residual-Control   Outer-Iter.   Inner-Iter.     Column Row Layer    Maximum-Head-Change  Column Row Layer    Maximum-Flux-Residual          L2-NORM 
          0                 1           2             4    7     1      -0.1843677397E-01       4    7    1        -0.9672058956E+00      0.2341213399E+01
          0                 2           2             4    7     1       0.1793389663E-02       4    7    1         0.9672021237E-01      0.2334062423E+00
          0                 3           2             4    7     1      -0.1221232433E-03       4    7    1        -0.6770421360E-02      0.1627276540E-01
          0                 4           1             4    7     1       0.4859398089E-05       4    7    1         0.2769106034E-03      0.6612329695E-03

    ------------------------------------------------
       NWT REQUIRED            4 OUTER ITERATIONS 
       AND A TOTAL OF          7 INNER ITERATIONS.
    ------------------------------------------------

 NO OUTPUT CONTROL FOR STRESS PERIOD    6   TIME STEP   12
 
 SOLVING FOR HEAD 
                                                   Max.-Head-Change                         Max.-Flux-Residual
  Residual-Control   Outer-Iter.   Inner-Iter.     Column Row Layer    Maximum-Head-Change  Column Row Layer    Maximum-Flux-Residual          L2-NORM 
          0                 1           2             4    7     1      -0.1826499382E-01       4    7    1        -0.9583150460E+00      0.2298514591E+01
          0                 2           2             4    7     1       0.1776679895E-02       4    7    1         0.9583112787E-01      0.2292462516E+00
          0                 3           2             4    7     1      -0.1209853702E-03       4    7    1        -0.6708185420E-02      0.1599227370E-01
          0                 4           1             4    7     1       0.4814120936E-05       4    7    1         0.2743651589E-03      0.6508640703E-03

    ------------------------------------------------
       NWT REQUIRED            4 OUTER ITERATIONS 
       AND A TOTAL OF          7 INNER ITERATIONS.
    ------------------------------------------------

 NO OUTPUT CONTROL FOR STRESS PERIOD    6   TIME STEP   13
 
 SOLVING FOR HEAD 
                                                   Max.-Head-Change                         Max.-Flux-Residual
  Residual-Control   Outer-Iter.   Inner-Iter.     Column Row Layer    Maximum-Head-Change  Column Row Layer    Maximum-Flux-Residual          L2-NORM 
          0                 1           2             4    7     1      -0.1809218195E-01       4    7    1        -0.9493572053E+00      0.2259481641E+01
          0                 2           2             4    7     1       0.1759870287E-02       4    7    1         0.9493534488E-01      0.2254395427E+00
          0                 3           2             4    7     1      -0.1198406981E-03       4    7    1        -0.6645480574E-02      0.1573399701E-01
          0                 4           1             4    7     1       0.4768573694E-05       4    7    1         0.2718005312E-03      0.6404133594E-03

    ------------------------------------------------
       NWT REQUIRED            4 OUTER ITERATIONS 
       AND A TOTAL OF          7 INNER ITERATIONS.
    ------------------------------------------------

 NO OUTPUT CONTROL FOR STRESS PERIOD    6   TIME STEP   14
 
 SOLVING FOR HEAD 
                                                   Max.-Head-Change                         Max.-Flux-Residual
  Residual-Control   Outer-Iter.   Inner-Iter.     Column Row Layer    Maximum-Head-Change  Column Row Layer    Maximum-Flux-Residual          L2-NORM 
          0                 1           2             4    7     1      -0.1791861446E-01       4    7    1        -0.9403475148E+00      0.2223558378E+01
          0                 2           2             4    7     1       0.1742986932E-02       4    7    1         0.9403437755E-01      0.2219260479E+00
          0                 3           1             4    7     1      -0.1186910060E-03       4    7    1        -0.6582412811E-02      0.1549529421E-01
          0                 4           1             4    7     1       0.4722828203E-05       4    7    1         0.2692210405E-03      0.6311799178E-03

    ------------------------------------------------
       NWT REQUIRED            4 OUTER ITERATIONS 
       AND A TOTAL OF          6 INNER ITERATIONS.
    ------------------------------------------------

 NO OUTPUT CONTROL FOR STRESS PERIOD    6   TIME STEP   15
 
 SOLVING FOR HEAD 
                                                   Max.-Head-Change                         Max.-Flux-Residual
  Residual-Control   Outer-Iter.   Inner-Iter.     Column Row Layer    Maximum-Head-Change  Column Row Layer    Maximum-Flux-Residual          L2-NORM 
          0                 1           2             4    7     1      -0.1774509198E-01       4    7    1        -0.9313300838E+00      0.2190307629E+01
          0                 2           2             4    7     1       0.1726107963E-02       4    7    1         0.9313263663E-01      0.2186655357E+00
          0                 3           1             4    7     1      -0.1175416106E-03       4    7    1        -0.6519290899E-02      0.1527283697E-01
          0                 4           1             4    7     1       0.4677093073E-05       4    7    1         0.2666393541E-03      0.6223959975E-03

    ------------------------------------------------
       NWT REQUIRED            4 OUTER ITERATIONS 
       AND A TOTAL OF          6 INNER ITERATIONS.
    ------------------------------------------------

 NO OUTPUT CONTROL FOR STRESS PERIOD    6   TIME STEP   16
 
 SOLVING FOR HEAD 
                                                   Max.-Head-Change                         Max.-Flux-Residual
  Residual-Control   Outer-Iter.   Inner-Iter.     Column Row Layer    Maximum-Head-Change  Column Row Layer    Maximum-Flux-Residual          L2-NORM 
          0                 1           2             4    7     1      -0.1757126688E-01       4    7    1        -0.9222865464E+00      0.2159337281E+01
          0                 2           2             4    7     1       0.1709199563E-02       4    7    1         0.9222828555E-01      0.2156231746E+00
          0                 3           1             4    7     1      -0.1163902110E-03       4    7    1        -0.6455986258E-02      0.1506512239E-01
          0                 4           1             4    7     1       0.4631278044E-05       4    7    1         0.2640502003E-03      0.6146718092E-03

    ------------------------------------------------
       NWT REQUIRED            4 OUTER ITERATIONS 
       AND A TOTAL OF          6 INNER ITERATIONS.
    ------------------------------------------------

 NO OUTPUT CONTROL FOR STRESS PERIOD    6   TIME STEP   17
 
 SOLVING FOR HEAD 
                                                   Max.-Head-Change                         Max.-Flux-Residual
  Residual-Control   Outer-Iter.   Inner-Iter.     Column Row Layer    Maximum-Head-Change  Column Row Layer    Maximum-Flux-Residual          L2-NORM 
          0                 1           2             4    7     1      -0.1739763042E-01       4    7    1        -0.9132435676E+00      0.2130357635E+01
          0                 2           2             4    7     1       0.1692309520E-02       4    7    1         0.9132399078E-01      0.2127713243E+00
          0                 3           1             4    7     1      -0.1152400612E-03       4    7    1        -0.6392685578E-02      0.1486969346E-01
          0                 4           1             4    7     1       0.4585512290E-05       4    7    1         0.2614611888E-03      0.6065840932E-03

    ------------------------------------------------
       NWT REQUIRED            4 OUTER ITERATIONS 
       AND A TOTAL OF          6 INNER ITERATIONS.
    ------------------------------------------------

 NO OUTPUT CONTROL FOR STRESS PERIOD    6   TIME STEP   18
 
 SOLVING FOR HEAD 
                                                   Max.-Head-Change                         Max.-Flux-Residual
  Residual-Control   Outer-Iter.   Inner-Iter.     Column Row Layer    Maximum-Head-Change  Column Row Layer    Maximum-Flux-Residual          L2-NORM 
          0                 1           2             4    7     1      -0.1722437313E-01       4    7    1        -0.9042115630E+00      0.2103108032E+01
          0                 2           2             4    7     1       0.1675456365E-02       4    7    1         0.9042079377E-01      0.2100850305E+00
          0                 3           1             4    7     1      -0.1140924238E-03       4    7    1        -0.6329461740E-02      0.1468514526E-01
          0                 4           1             4    7     1       0.4539847158E-05       4    7    1         0.2588753412E-03      0.5994183170E-03

    ------------------------------------------------
       NWT REQUIRED            4 OUTER ITERATIONS 
       AND A TOTAL OF          6 INNER ITERATIONS.
    ------------------------------------------------

 NO OUTPUT CONTROL FOR STRESS PERIOD    6   TIME STEP   19
 
 SOLVING FOR HEAD 
                                                   Max.-Head-Change                         Max.-Flux-Residual
  Residual-Control   Outer-Iter.   Inner-Iter.     Column Row Layer    Maximum-Head-Change  Column Row Layer    Maximum-Flux-Residual          L2-NORM 
          0                 1           2             4    7     1      -0.1705138654E-01       4    7    1        -0.8951854776E+00      0.2077363704E+01
          0                 2           2             4    7     1       0.1658629545E-02       4    7    1         0.8951818903E-01      0.2075431504E+00
          0                 3           1             4    7     1      -0.1129465784E-03       4    7    1        -0.6266279320E-02      0.1451031451E-01
          0                 4           1             4    7     1       0.4494252253E-05       4    7    1         0.2562911538E-03      0.5924108544E-03

    ------------------------------------------------
       NWT REQUIRED            4 OUTER ITERATIONS 
       AND A TOTAL OF          6 INNER ITERATIONS.
    ------------------------------------------------

 NO OUTPUT CONTROL FOR STRESS PERIOD    6   TIME STEP   20
 
 SOLVING FOR HEAD 
                                                   Max.-Head-Change                         Max.-Flux-Residual
  Residual-Control   Outer-Iter.   Inner-Iter.     Column Row Layer    Maximum-Head-Change  Column Row Layer    Maximum-Flux-Residual          L2-NORM 
          0                 1           2             4    7     1      -0.1687910881E-01       4    7    1        -0.8861890787E+00      0.2052956895E+01
          0                 2           2             4    7     1       0.1641871683E-02       4    7    1         0.8861855321E-01      0.2051297318E+00
          0                 3           1             4    7     1      -0.1118054298E-03       4    7    1        -0.6203304758E-02      0.1434371127E-01
          0                 4           1             4    7     1       0.4448845467E-05       4    7    1         0.2537155035E-03      0.5857736394E-03

    ------------------------------------------------
       NWT REQUIRED            4 OUTER ITERATIONS 
       AND A TOTAL OF          6 INNER ITERATIONS.
    ------------------------------------------------

 NO OUTPUT CONTROL FOR STRESS PERIOD    6   TIME STEP   21
 
 SOLVING FOR HEAD 
                                                   Max.-Head-Change                         Max.-Flux-Residual
  Residual-Control   Outer-Iter.   Inner-Iter.     Column Row Layer    Maximum-Head-Change  Column Row Layer    Maximum-Flux-Residual          L2-NORM 
          0                 1           2             4    7     1      -0.1670741421E-01       4    7    1        -0.8772155757E+00      0.2029743421E+01
          0                 2           2             4    7     1       0.1625170547E-02       4    7    1         0.8772120727E-01      0.2028314835E+00
          0                 3           1             4    7     1      -0.1106681435E-03       4    7    1        -0.6140490459E-02      0.1418507093E-01
          0                 4           1             4    7     1       0.4403591801E-05       4    7    1         0.2511463911E-03      0.5794387686E-03

    ------------------------------------------------
       NWT REQUIRED            4 OUTER ITERATIONS 
       AND A TOTAL OF          6 INNER ITERATIONS.
    ------------------------------------------------

 NO OUTPUT CONTROL FOR STRESS PERIOD    6   TIME STEP   22
 
 SOLVING FOR HEAD 
                                                   Max.-Head-Change                         Max.-Flux-Residual
  Residual-Control   Outer-Iter.   Inner-Iter.     Column Row Layer    Maximum-Head-Change  Column Row Layer    Maximum-Flux-Residual          L2-NORM 
          0                 1           2             4    7     1      -0.1653697202E-01       4    7    1        -0.8683025325E+00      0.2007585255E+01
          0                 2           2             4    7     1       0.1608591240E-02       4    7    1         0.8682990745E-01      0.2006354063E+00
          0                 3           1             4    7     1      -0.1095391540E-03       4    7    1        -0.6078099426E-02      0.1403298834E-01
          0                 4           1             4    7     1       0.4358668320E-05       4    7    1         0.2485945954E-03      0.5731354542E-03

    ------------------------------------------------
       NWT REQUIRED            4 OUTER ITERATIONS 
       AND A TOTAL OF          6 INNER ITERATIONS.
    ------------------------------------------------

 NO OUTPUT CONTROL FOR STRESS PERIOD    6   TIME STEP   23
 
 SOLVING FOR HEAD 
                                                   Max.-Head-Change                         Max.-Flux-Residual
  Residual-Control   Outer-Iter.   Inner-Iter.     Column Row Layer    Maximum-Head-Change  Column Row Layer    Maximum-Flux-Residual          L2-NORM 
          0                 1           2             4    7     1      -0.1636735469E-01       4    7    1        -0.8594258741E+00      0.1986378913E+01
          0                 2           2             4    7     1       0.1592092171E-02       4    7    1         0.8594224635E-01      0.1985314298E+00
          0                 3           1             4    7     1      -0.1084156282E-03       4    7    1        -0.6015963075E-02      0.1388745201E-01
          0                 4           1             4    7     1       0.4313962431E-05       4    7    1         0.2460532310E-03      0.5673529410E-03

    ------------------------------------------------
       NWT REQUIRED            4 OUTER ITERATIONS 
       AND A TOTAL OF          6 INNER ITERATIONS.
    ------------------------------------------------

 NO OUTPUT CONTROL FOR STRESS PERIOD    6   TIME STEP   24
 
 SOLVING FOR HEAD 
                                                   Max.-Head-Change                         Max.-Flux-Residual
  Residual-Control   Outer-Iter.   Inner-Iter.     Column Row Layer    Maximum-Head-Change  Column Row Layer    Maximum-Flux-Residual          L2-NORM 
          0                 1           2             4    7     1      -0.1619894128E-01       4    7    1        -0.8506070368E+00      0.1966039093E+01
          0                 2           2             4    7     1       0.1575710214E-02       4    7    1         0.8506036750E-01      0.1965116273E+00
          0                 3           1             4    7     1      -0.1073000765E-03       4    7    1        -0.5954231469E-02      0.1374720551E-01
          0                 4           1             4    7     1       0.4269573603E-05       4    7    1         0.2435283920E-03      0.5616564243E-03

    ------------------------------------------------
       NWT REQUIRED            4 OUTER ITERATIONS 
       AND A TOTAL OF          6 INNER ITERATIONS.
    ------------------------------------------------

 NO OUTPUT CONTROL FOR STRESS PERIOD    6   TIME STEP   25
 
 SOLVING FOR HEAD 
                                                   Max.-Head-Change                         Max.-Flux-Residual
  Residual-Control   Outer-Iter.   Inner-Iter.     Column Row Layer    Maximum-Head-Change  Column Row Layer    Maximum-Flux-Residual          L2-NORM 
          0                 1           2             4    7     1      -0.1603183106E-01       4    7    1        -0.8418515779E+00      0.1946482636E+01
          0                 2           2             4    7     1       0.1559455022E-02       4    7    1         0.8418482664E-01      0.1945678801E+00
          0                 3           1             4    7     1      -0.1061931577E-03       4    7    1        -0.5892943544E-02      0.1361231518E-01
          0                 4           1             4    7     1       0.4225528086E-05       4    7    1         0.2410217214E-03      0.5562597173E-03

    ------------------------------------------------
       NWT REQUIRED            4 OUTER ITERATIONS 
       AND A TOTAL OF          6 INNER ITERATIONS.
    ------------------------------------------------

 NO OUTPUT CONTROL FOR STRESS PERIOD    6   TIME STEP   26
 
 SOLVING FOR HEAD 
                                                   Max.-Head-Change                         Max.-Flux-Residual
  Residual-Control   Outer-Iter.   Inner-Iter.     Column Row Layer    Maximum-Head-Change  Column Row Layer    Maximum-Flux-Residual          L2-NORM 
          0                 1           2             4    7     1      -0.1586583123E-01       4    7    1        -0.8331492356E+00      0.1927627569E+01
          0                 2           2             4    7     1       0.1543307844E-02       4    7    1         0.8331459755E-01      0.1926926104E+00
          0                 3           1             4    7     1      -0.1050935941E-03       4    7    1        -0.5832027433E-02      0.1348206316E-01
          0                 4           1             4    7     1       0.4181775453E-05       4    7    1         0.2385302535E-03      0.5510495986E-03

    ------------------------------------------------
       NWT REQUIRED            4 OUTER ITERATIONS 
       AND A TOTAL OF          6 INNER ITERATIONS.
    ------------------------------------------------

 NO OUTPUT CONTROL FOR STRESS PERIOD    6   TIME STEP   27
 
 SOLVING FOR HEAD 
                                                   Max.-Head-Change                         Max.-Flux-Residual
  Residual-Control   Outer-Iter.   Inner-Iter.     Column Row Layer    Maximum-Head-Change  Column Row Layer    Maximum-Flux-Residual          L2-NORM 
          0                 1           2             4    7     1      -0.1570130151E-01       4    7    1        -0.8245197568E+00      0.1909443512E+01
          0                 2           2             4    7     1       0.1527303667E-02       4    7    1         0.8245165491E-01      0.1908830475E+00
          0                 3           1             4    7     1      -0.1040037681E-03       4    7    1        -0.5771621369E-02      0.1335618020E-01
          0                 4           1             4    7     1       0.4138410110E-05       4    7    1         0.2360596300E-03      0.5460033770E-03

    ------------------------------------------------
       NWT REQUIRED            4 OUTER ITERATIONS 
       AND A TOTAL OF          6 INNER ITERATIONS.
    ------------------------------------------------

 NO OUTPUT CONTROL FOR STRESS PERIOD    6   TIME STEP   28
 
 SOLVING FOR HEAD 
                                                   Max.-Head-Change                         Max.-Flux-Residual
  Residual-Control   Outer-Iter.   Inner-Iter.     Column Row Layer    Maximum-Head-Change  Column Row Layer    Maximum-Flux-Residual          L2-NORM 
          0                 1           2             4    7     1      -0.1553831063E-01       4    7    1        -0.8159670994E+00      0.1891855512E+01
          0                 2           2             4    7     1       0.1511449180E-02       4    7    1         0.8159639445E-01      0.1891318897E+00
          0                 3           1             4    7     1      -0.1029241359E-03       4    7    1        -0.5711753078E-02      0.1323405698E-01
          0                 4           1             4    7     1       0.4095450936E-05       4    7    1         0.2336110306E-03      0.5407258321E-03

    ------------------------------------------------
       NWT REQUIRED            4 OUTER ITERATIONS 
       AND A TOTAL OF          6 INNER ITERATIONS.
    ------------------------------------------------

 NO OUTPUT CONTROL FOR STRESS PERIOD    6   TIME STEP   29
 
 SOLVING FOR HEAD 
                                                   Max.-Head-Change                         Max.-Flux-Residual
  Residual-Control   Outer-Iter.   Inner-Iter.     Column Row Layer    Maximum-Head-Change  Column Row Layer    Maximum-Flux-Residual          L2-NORM 
          0                 1           2             4    7     1      -0.1537694395E-01       4    7    1        -0.8074945894E+00      0.1860896293E+01
          0                 2           2             4    7     1       0.1495752684E-02       4    7    1         0.8074914884E-01      0.1860785592E+00
          0                 3           1             4    7     1      -0.1018552616E-03       4    7    1        -0.5652445792E-02      0.1302457824E-01
          0                 4           1             4    7     1       0.4052919577E-05       4    7    1         0.2311853430E-03      0.5326657986E-03

    ------------------------------------------------
       NWT REQUIRED            4 OUTER ITERATIONS 
       AND A TOTAL OF          6 INNER ITERATIONS.
    ------------------------------------------------

 NO OUTPUT CONTROL FOR STRESS PERIOD    6   TIME STEP   30



 STREAM LISTING     PERIOD      6   STEP       30

 LAYER ROW COL. STREAM  RCH.  FLOW INTO     FLOW TO   FLOW OUT OF   OVRLND.     DIRECT     STREAM       STREAM     STREAM     STREAM   STREAMBED  STREAMBED
                SEG.NO.  NO.  STRM. RCH.    AQUIFER    STRM. RCH.    RUNOFF     PRECIP       ET          HEAD       DEPTH      WIDTH   CONDCTNC.   GRADIENT

   1    1    1     1     1    9.2355E+01  4.5966E-01   9.1895E+01  0.000E+00  0.000E+00  0.000E+00  1.09482E+03  1.771E+00  2.141E+01  9.635E-02  1.590E+00
   1    2    2     1     2    9.1895E+01  7.1318E-01   9.1182E+01  0.000E+00  0.000E+00  0.000E+00  1.08983E+03  1.769E+00  2.136E+01  1.496E-01  1.590E+00
   1    3    3     1     3    9.1182E+01  6.0950E-01   9.0573E+01  0.000E+00  0.000E+00  0.000E+00  1.08418E+03  1.766E+00  2.131E+01  1.279E-01  1.589E+00
   1    3    4     1     4    9.0573E+01  5.6231E-01   9.0010E+01  0.000E+00  0.000E+00  0.000E+00  1.07917E+03  1.764E+00  2.127E+01  1.180E-01  1.588E+00
   1    4    5     2     1    8.8010E+01  4.3413E-01   8.7576E+01  0.000E+00  0.000E+00  0.000E+00  1.07450E+03  2.566E+00  1.200E+01  7.800E-02  1.855E+00
   1    5    6     2     2    8.7576E+01  3.3354E-01   8.7243E+01  0.000E+00  0.000E+00  0.000E+00  1.06907E+03  2.559E+00  1.200E+01  6.000E-02  1.853E+00
   1    6    6     2     3    8.7243E+01  3.3319E-01   8.6909E+01  0.000E+00  0.000E+00  0.000E+00  1.06435E+03  2.553E+00  1.200E+01  6.000E-02  1.851E+00
   1    7    6     2     4    8.6909E+01  3.3284E-01   8.6576E+01  0.000E+00  0.000E+00  0.000E+00  1.05962E+03  2.547E+00  1.200E+01  6.000E-02  1.849E+00
   1    8    6     2     5    8.6576E+01  3.3249E-01   8.6244E+01  0.000E+00  0.000E+00  0.000E+00  1.05490E+03  2.541E+00  1.200E+01  6.000E-02  1.847E+00
   1    3    5     3     1    2.0000E+00  2.8252E-01   1.7175E+00  0.000E+00  0.000E+00  0.000E+00  1.07555E+03  1.909E+00  9.636E+00  7.227E-02  1.955E+00
   1    3    6     3     2    1.7175E+00  2.4905E-01   1.4684E+00  0.000E+00  0.000E+00  0.000E+00  1.07264E+03  1.727E+00  8.909E+00  6.682E-02  1.864E+00
   1    3    7     3     3    1.4684E+00  1.9718E-01   1.2712E+00  0.000E+00  0.000E+00  0.000E+00  1.06987E+03  1.555E+00  8.218E+00  5.547E-02  1.777E+00
   1    4    8     3     4    1.2712E+00  2.2567E-01   1.0456E+00  0.000E+00  0.000E+00  0.000E+00  1.06682E+03  1.364E+00  7.455E+00  6.709E-02  1.682E+00
   1    5    8     3     5    1.0456E+00  1.5790E-01   8.8768E-01  0.000E+00  0.000E+00  0.000E+00  1.06362E+03  1.164E+00  6.655E+00  4.991E-02  1.582E+00
   1    6    8     3     6    8.8768E-01  5.5980E-02   8.3170E-01  0.000E+00  0.000E+00  0.000E+00  1.06158E+03  1.036E+00  6.145E+00  1.844E-02  1.518E+00
   1    5   10     4     1    1.0000E+01  9.0919E-02   9.9091E+00  0.000E+00  0.000E+00  0.000E+00  1.07836E+03  6.368E-01  1.000E+01  2.500E-02  1.212E+00
   1    5    9     4     2    9.9091E+00  1.8158E-01   9.7275E+00  0.000E+00  0.000E+00  0.000E+00  1.07154E+03  6.315E-01  1.000E+01  5.000E-02  1.211E+00
   1    6    8     4     3    9.7275E+00  1.2689E-01   9.6006E+00  0.000E+00  0.000E+00  0.000E+00  1.06381E+03  6.256E-01  1.000E+01  3.500E-02  1.209E+00
   1    6    8     5     1    1.0432E+01  2.2686E-01   1.0205E+01  0.000E+00  0.000E+00  0.000E+00  1.05868E+03  6.790E-01  1.542E+01  6.166E-02  1.226E+00
   1    7    7     5     2    1.0205E+01  2.7894E-01   9.9265E+00  0.000E+00  0.000E+00  0.000E+00  1.05417E+03  6.732E-01  1.519E+01  7.594E-02  1.224E+00
   1    8    7     5     3    9.9265E+00  1.9221E-01   9.7343E+00  0.000E+00  0.000E+00  0.000E+00  1.04992E+03  6.676E-01  1.497E+01  5.241E-02  1.223E+00
   1    8    6     5     4    9.7343E+00  1.3577E-01   9.5985E+00  0.000E+00  0.000E+00  0.000E+00  1.04691E+03  6.637E-01  1.482E+01  3.706E-02  1.221E+00
   1    9    6     6     1    9.5843E+01  3.4390E-01   9.5499E+01  0.000E+00  0.000E+00  0.000E+00  1.04546E+03  2.732E+00  1.200E+01  6.000E-02  1.911E+00
   1   10    7     6     2    9.5499E+01  3.4355E-01   9.5155E+01  0.000E+00  0.000E+00  0.000E+00  1.04091E+03  2.726E+00  1.200E+01  6.000E-02  1.909E+00
   1   11    7     6     3    9.5155E+01  3.4320E-01   9.4812E+01  0.000E+00  0.000E+00  0.000E+00  1.03636E+03  2.720E+00  1.200E+01  6.000E-02  1.907E+00
   1   12    7     6     4    9.4812E+01  3.4284E-01   9.4469E+01  0.000E+00  0.000E+00  0.000E+00  1.03180E+03  2.714E+00  1.200E+01  6.000E-02  1.905E+00
   1   13    7     6     5    9.4469E+01  3.3805E-02   9.4435E+01  0.000E+00  0.000E+00  0.000E+00  1.02862E+03  2.711E+00  1.200E+01  2.400E-02  4.695E-01
   1   14    9     7     1    1.5000E+02  1.3319E+00   1.4867E+02  0.000E+00  0.000E+00  0.000E+00  1.03987E+03  2.288E+00  5.529E+01  5.593E-01  7.938E-01
   1   13    8     7     2    1.4867E+02  1.8070E+00   1.4686E+02  0.000E+00  0.000E+00  0.000E+00  1.03478E+03  2.279E+00  5.526E+01  6.148E-01  9.797E-01
   1   13    7     7     3    1.4686E+02  1.3844E+00   1.4548E+02  0.000E+00  0.000E+00  0.000E+00  1.02969E+03  2.271E+00  5.522E+01  5.585E-01  8.263E-01
   1   13    6     8     1    2.3991E+02  1.1020E+00   2.3881E+02  0.000E+00  0.000E+00  0.000E+00  1.02523E+03  3.356E+00  4.867E+01  4.959E-01  7.407E-01
   1   13    5     8     2    2.3881E+02  2.5245E-01   2.3856E+02  0.000E+00  0.000E+00  0.000E+00  1.01898E+03  3.353E+00  4.862E+01  4.954E-01  1.699E-01
   1   13    4     8     3    2.3856E+02 -2.1637E+00   2.4072E+02  0.000E+00  0.000E+00  0.000E+00  1.01273E+03  3.358E+00  4.869E+01  4.962E+00 -1.454E-01
   1   13    3     8     4    2.4072E+02 -3.3685E+00   2.4409E+02  0.000E+00  0.000E+00  0.000E+00  1.00650E+03  3.372E+00  4.890E+01  4.983E+00 -2.253E-01
   1   13    2     8     5    2.4409E+02 -2.5231E+00   2.4661E+02  0.000E+00  0.000E+00  0.000E+00  1.00026E+03  3.388E+00  4.912E+01  5.006E+00 -1.680E-01
   1   13    1     8     6    2.4661E+02 -1.8906E+00   2.4850E+02  0.000E+00  0.000E+00  0.000E+00  9.95274E+02  3.399E+00  4.929E+01  3.013E+00 -2.091E-01





UNSATURATED ZONE PACKAGE VOLUMETRIC BUDGET FOR  TIME STEP    30 STRESS PERIOD    6
  ------------------------------------------------------------------------------



     CUMULATIVE VOLUMES      L**3       RATES FOR THIS TIME STEP      L**3/T
     ------------------                 ------------------------

           IN:                                      IN:
           ---                                      ---
        INFILTRATION =    85059642.3694          INFILTRATION =          11.5956

          OUT:                                     OUT:
          ----                                     ----
              UZF ET =    66348653.3840                UZF ET =          11.6075
        UZF RECHARGE =       73224.0000          UZF RECHARGE =       0.0000E+00

            IN - OUT =    18637764.9854              IN - OUT =      -1.1942E-02

          STORAGE:                                 STORAGE:
          --------                                 --------
      STORAGE CHANGE =    18637764.0034        STORAGE CHANGE =      -1.1942E-02

 PERCENT DISCREPANCY IS DIFFERENCE BETWEEN IN-OUT MINUS CHANGE IN STORAGE
 DIVIDED BY THE AVERAGE OF IN AND OUT TIMES 100

 PERCENT DISCREPANCY =           0.00     PERCENT DISCREPANCY =           0.00






1
  VOLUMETRIC BUDGET FOR AGRICULTURAL FIELDS AT TIME STEP   30, STRESS PERIOD   6
  ------------------------------------------------------------------------------

     CUMULATIVE VOLUMES      L**3       RATES FOR THIS TIME STEP      L**3/T
     ------------------                 ------------------------

           IN:                                      IN:
           ---                                      ---
               AG WELLS  =    27027794.0000                 AG WELLS  =           7.1881
      DIVERSION SEGMENTS =           0.0000        DIVERSION SEGMENTS =           0.0000
           GW IRRIGATION =           0.0000             GW IRRIGATION =           0.0000
           SW IRRIGATION =           0.0000             SW IRRIGATION =           0.0000
        SYSTEM LOSSES GW =           0.0000          SYSTEM LOSSES GW =           0.0000
        SYSTEM LOSSES SW =           0.0000          SYSTEM LOSSES SW =           0.0000

                TOTAL IN =    27027794.0000                  TOTAL IN =           7.1881

          OUT:                                     OUT:
          ----                                     ----
               AG WELLS  =           0.0000                 AG WELLS  =           0.0000
      DIVERSION SEGMENTS =           0.0000        DIVERSION SEGMENTS =           0.0000
           GW IRRIGATION =    27027794.0000             GW IRRIGATION =           7.1881
           SW IRRIGATION =           0.0000             SW IRRIGATION =           0.0000
        SYSTEM LOSSES GW =           0.0000          SYSTEM LOSSES GW =           0.0000
        SYSTEM LOSSES SW =           0.0000          SYSTEM LOSSES SW =           0.0000

               TOTAL OUT =    27027794.0000                 TOTAL OUT =           7.1881

                IN - OUT =           0.0000                  IN - OUT =           0.0000

     PERCENT DISCREPANCY =           0.00         PERCENT DISCREPANCY =           0.00



1
  VOLUMETRIC BUDGET FOR ENTIRE MODEL AT END OF TIME STEP   30, STRESS PERIOD   6
  ------------------------------------------------------------------------------

     CUMULATIVE VOLUMES      L**3       RATES FOR THIS TIME STEP      L**3/T
     ------------------                 ------------------------

           IN:                                      IN:
           ---                                      ---
             STORAGE     =    34004964.0000               STORAGE     =           6.7627
       CONSTANT HEAD     =           0.0000         CONSTANT HEAD     =           0.0000
     HEAD DEP BOUNDS     =     3778269.5000       HEAD DEP BOUNDS     =           0.2855
      STREAM LEAKAGE     =   166668480.0000        STREAM LEAKAGE     =          13.7973
        UZF RECHARGE     =       73223.9531          UZF RECHARGE     =           0.0000
               GW ET     =           0.0000                 GW ET     =           0.0000
     SURFACE LEAKAGE     =           0.0000       SURFACE LEAKAGE     =           0.0000
           AG WELLS      =           0.0000             AG WELLS      =           0.0000

                TOTAL IN =   204524928.0000                  TOTAL IN =          20.8455

          OUT:                                     OUT:
          ----                                     ----
             STORAGE     =    37004048.0000               STORAGE     =           2.5924
       CONSTANT HEAD     =           0.0000         CONSTANT HEAD     =           0.0000
     HEAD DEP BOUNDS     =     3885210.7500       HEAD DEP BOUNDS     =           0.3003
      STREAM LEAKAGE     =   134705504.0000        STREAM LEAKAGE     =           9.9459
        UZF RECHARGE     =           0.0000          UZF RECHARGE     =           0.0000
               GW ET     =     1905001.8750                 GW ET     =           0.8189
     SURFACE LEAKAGE     =           0.0000       SURFACE LEAKAGE     =           0.0000
           AG WELLS      =    27027794.0000             AG WELLS      =           7.1881

               TOTAL OUT =   204527568.0000                 TOTAL OUT =          20.8455

                IN - OUT =       -2640.0000                  IN - OUT =      -1.1444E-05

     PERCENT DISCREPANCY =          -0.00         PERCENT DISCREPANCY =          -0.00






         TIME SUMMARY AT END OF TIME STEP   30 IN STRESS PERIOD    6
                    SECONDS     MINUTES      HOURS       DAYS        YEARS
                    -----------------------------------------------------------
   TIME STEP LENGTH  87667.      1461.1      24.352      1.0147     2.77799E-03
 STRESS PERIOD TIME 2.63000E+06  43833.      730.56      30.440     8.33397E-02
         TOTAL TIME 1.32364E+07 2.20607E+05  3676.8      153.20     0.41944    
1
1
                            STRESS PERIOD NO.    7, LENGTH =   2630000.    
                            -----------------------------------------------

                              NUMBER OF TIME STEPS =    30

                               MULTIPLIER FOR DELT =     1.000

                            INITIAL TIME STEP SIZE =   87666.66    

 REUSING NON-PARAMETER GHB CELLS FROM LAST STRESS PERIOD

      2 GHB CELLS

 REUSING STREAM SEGMENT DATA FROM LAST STRESS PERIOD



            AREAL INFILTRATION RATE
 READING ON UNIT   19 WITH FORMAT: (10F4.0)            

            1           2           3           4           5           6           7           8           9          10
 ........................................................................................................................
   1   1.2000E-09   0.000       0.000       0.000       0.000       0.000       0.000       0.000       0.000       0.000    
   2   2.1000E-09  2.0000E-09  8.0000E-10  8.5000E-09   0.000       0.000       0.000       0.000       0.000       0.000    
   3   5.0000E-10  1.1000E-09  8.8000E-09  5.5000E-09   0.000       0.000       0.000       0.000       0.000       0.000    
   4   8.5000E-09  1.1000E-09  1.1000E-09  1.1000E-09  2.0000E-09   0.000       0.000       0.000       0.000       0.000    
   5   8.5000E-09  1.1000E-09  1.1000E-09  1.1000E-09  1.1000E-09   0.000       0.000       0.000       0.000       0.000    
   6   8.5000E-09  5.2000E-09  2.1000E-09  1.1000E-09  1.5000E-09   0.000       0.000       0.000       0.000       0.000    
   7   8.5000E-09  5.2000E-09  2.1000E-09  1.2000E-09  2.0000E-09   0.000       0.000       0.000       0.000       0.000    
   8   5.0000E-10  5.2000E-09  2.1000E-09  1.2000E-09  5.0000E-09   0.000       0.000       0.000       0.000       0.000    
   9   5.0000E-10  5.2000E-09  2.1000E-09  1.2000E-09  5.0000E-09   0.000       0.000       0.000       0.000       0.000    
  10   5.0000E-10  5.2000E-09  2.1000E-09  1.2000E-09  5.8000E-09   0.000       0.000       0.000       0.000       0.000    
  11   1.0000E-10  1.1000E-09  1.1000E-09  1.2000E-09  5.0000E-09   0.000       0.000       0.000       0.000       0.000    
  12   1.1000E-09  1.1000E-09  1.1000E-09  1.1000E-09  2.0000E-09   0.000       0.000       0.000       0.000       0.000    
  13   1.1000E-09  2.2000E-09  2.2000E-09  2.1000E-09  1.0000E-09   0.000       0.000       0.000       0.000       0.000    
  14   2.0000E-10  5.5000E-09  5.5000E-09  5.2000E-09  1.0000E-09   0.000       0.000       0.000       0.000       0.000    
  15    0.000      8.8000E-09  8.8000E-09   0.000       0.000       0.000       0.000       0.000       0.000       0.000    

                  ET RATE =  1.500000E-07

 USING ET EXTINCTION DEPTH FROM PREVIOUS STRESS PERIOD. CURRENT PERIOD IS:       7

 USING EXTINCTION WATER CONTENT FROM PREVIOUS STRESS PERIOD. CURRENT PERIOD IS:       7

 USING AIR ENTRY PRESSURE FROM PREVIOUS STRESS PERIOD. CURRENT PERIOD IS:       7

 USING ROOT PRESSURE HEAD FROM PREVIOUS STRESS PERIOD. CURRENT PERIOD IS:       7

 USING ROOT ACTIVITY FROM PREVIOUS STRESS PERIOD. CURRENT PERIOD IS:       7

 PROCESSING AG STRESS PERIOD DATA

 READING AG STRESS PERIOD DATA

 READING IRRIGATION WELL

 END PROCESSING AG STRESS PERIOD DATA OPTIONS
 
 SOLVING FOR HEAD 
                                                   Max.-Head-Change                         Max.-Flux-Residual
  Residual-Control   Outer-Iter.   Inner-Iter.     Column Row Layer    Maximum-Head-Change  Column Row Layer    Maximum-Flux-Residual          L2-NORM 
          0                 1           2             4    7     1      -0.6309744248E-01       4    7    1        -0.3299091962E+01      0.7932979648E+01
          0                 2           2             4    7     1       0.6137617296E-02       4    7    1         0.3299064653E+00      0.7926901536E+00
          0                 3           2             4    7     1      -0.4179536849E-03       4    7    1        -0.2309372456E-01      0.5543548774E-01
          0                 4           1             4    7     1       0.1662656272E-04       4    7    1         0.9442961118E-03      0.2263603252E-02

    ------------------------------------------------
       NWT REQUIRED            4 OUTER ITERATIONS 
       AND A TOTAL OF          7 INNER ITERATIONS.
    ------------------------------------------------

 NO OUTPUT CONTROL FOR STRESS PERIOD    7   TIME STEP    1
 
 SOLVING FOR HEAD 
                                                   Max.-Head-Change                         Max.-Flux-Residual
  Residual-Control   Outer-Iter.   Inner-Iter.     Column Row Layer    Maximum-Head-Change  Column Row Layer    Maximum-Flux-Residual          L2-NORM 
          0                 1           2             4    7     1      -0.6259454326E-01       4    7    1        -0.3274259089E+01      0.7717269515E+01
          0                 2           2             4    7     1       0.6088696024E-02       4    7    1         0.3274229771E+00      0.7713010344E+00
          0                 3           2             4    7     1      -0.4146223562E-03       4    7    1        -0.2291988221E-01      0.5395427253E-01
          0                 4           1             4    7     1       0.1649400595E-04       4    7    1         0.9371859580E-03      0.2203819179E-02

    ------------------------------------------------
       NWT REQUIRED            4 OUTER ITERATIONS 
       AND A TOTAL OF          7 INNER ITERATIONS.
    ------------------------------------------------

 NO OUTPUT CONTROL FOR STRESS PERIOD    7   TIME STEP    2
 
 SOLVING FOR HEAD 
                                                   Max.-Head-Change                         Max.-Flux-Residual
  Residual-Control   Outer-Iter.   Inner-Iter.     Column Row Layer    Maximum-Head-Change  Column Row Layer    Maximum-Flux-Residual          L2-NORM 
          0                 1           2             4    7     1      -0.6215913600E-01       4    7    1        -0.3252526048E+01      0.7567402950E+01
          0                 2           2             4    7     1       0.6046340739E-02       4    7    1         0.3252495301E+00      0.7564427720E+00
          0                 3           2             4    7     1      -0.4117381381E-03       4    7    1        -0.2276774221E-01      0.5292588403E-01
          0                 4           1             4    7     1       0.1637924031E-04       4    7    1         0.9309634174E-03      0.2162672377E-02

    ------------------------------------------------
       NWT REQUIRED            4 OUTER ITERATIONS 
       AND A TOTAL OF          7 INNER ITERATIONS.
    ------------------------------------------------

 NO OUTPUT CONTROL FOR STRESS PERIOD    7   TIME STEP    3
 
 SOLVING FOR HEAD 
                                                   Max.-Head-Change                         Max.-Flux-Residual
  Residual-Control   Outer-Iter.   Inner-Iter.     Column Row Layer    Maximum-Head-Change  Column Row Layer    Maximum-Flux-Residual          L2-NORM 
          0                 1           2             4    7     1      -0.6170833338E-01       4    7    1        -0.3229901221E+01      0.7434771508E+01
          0                 2           2             4    7     1       0.6002488175E-02       4    7    1         0.3229869228E+00      0.7432684445E+00
          0                 3           2             4    7     1      -0.4087519583E-03       4    7    1        -0.2260936081E-01      0.5201154618E-01
          0                 4           1             4    7     1       0.1626041735E-04       4    7    1         0.9244855983E-03      0.2125647032E-02

    ------------------------------------------------
       NWT REQUIRED            4 OUTER ITERATIONS 
       AND A TOTAL OF          7 INNER ITERATIONS.
    ------------------------------------------------

 NO OUTPUT CONTROL FOR STRESS PERIOD    7   TIME STEP    4
 
 SOLVING FOR HEAD 
                                                   Max.-Head-Change                         Max.-Flux-Residual
  Residual-Control   Outer-Iter.   Inner-Iter.     Column Row Layer    Maximum-Head-Change  Column Row Layer    Maximum-Flux-Residual          L2-NORM 
          0                 1           2             4    7     1      -0.6124385126E-01       4    7    1        -0.3206478873E+01      0.7314961328E+01
          0                 2           2             4    7     1       0.5957305217E-02       4    7    1         0.3206445807E+00      0.7313486801E+00
          0                 3           2             4    7     1      -0.4056751811E-03       4    7    1        -0.2244539779E-01      0.5118252678E-01
          0                 4           1             4    7     1       0.1613798974E-04       4    7    1         0.9177795075E-03      0.2092100998E-02

    ------------------------------------------------
       NWT REQUIRED            4 OUTER ITERATIONS 
       AND A TOTAL OF          7 INNER ITERATIONS.
    ------------------------------------------------

 OUTPUT CONTROL FOR STRESS PERIOD    7   TIME STEP    5
    PRINT BUDGET
    SAVE BUDGET
 UBDSV1 SAVING "         STORAGE" ON UNIT 102 AT TIME STEP  5, STRESS PERIOD   7
 UBDSV2 SAVING "   CONSTANT HEAD" ON UNIT 102 AT TIME STEP  5, STRESS PERIOD   7
 UBDSV1 SAVING "FLOW RIGHT FACE " ON UNIT 102 AT TIME STEP  5, STRESS PERIOD   7
 UBDSV1 SAVING "FLOW FRONT FACE " ON UNIT 102 AT TIME STEP  5, STRESS PERIOD   7

  HEAD DEP BOUNDS   PERIOD    7   STEP     5
 BOUNDARY      1   LAYER   1   ROW    13   COL     1   RATE   -0.300150    
 BOUNDARY      2   LAYER   1   ROW    14   COL     9   RATE    0.285491    



 STREAM LISTING     PERIOD      7   STEP        5

 LAYER ROW COL. STREAM  RCH.  FLOW INTO     FLOW TO   FLOW OUT OF   OVRLND.     DIRECT     STREAM       STREAM     STREAM     STREAM   STREAMBED  STREAMBED
                SEG.NO.  NO.  STRM. RCH.    AQUIFER    STRM. RCH.    RUNOFF     PRECIP       ET          HEAD       DEPTH      WIDTH   CONDCTNC.   GRADIENT

   1    1    1     1     1    8.3000E+01  4.4019E-01   8.2560E+01  0.000E+00  0.000E+00  0.000E+00  1.09478E+03  1.734E+00  2.066E+01  9.299E-02  1.578E+00
   1    2    2     1     2    8.2560E+01  6.8286E-01   8.1877E+01  0.000E+00  0.000E+00  0.000E+00  1.08979E+03  1.731E+00  2.062E+01  1.443E-01  1.577E+00
   1    3    3     1     3    8.1877E+01  5.8349E-01   8.1294E+01  0.000E+00  0.000E+00  0.000E+00  1.08415E+03  1.729E+00  2.057E+01  1.234E-01  1.576E+00
   1    3    4     1     4    8.1294E+01  5.3822E-01   8.0756E+01  0.000E+00  0.000E+00  0.000E+00  1.07913E+03  1.726E+00  2.052E+01  1.139E-01  1.575E+00
   1    4    5     2     1    7.8756E+01  4.2120E-01   7.8334E+01  0.000E+00  0.000E+00  0.000E+00  1.07433E+03  2.400E+00  1.200E+01  7.800E-02  1.800E+00
   1    5    6     2     2    7.8334E+01  3.2359E-01   7.8011E+01  0.000E+00  0.000E+00  0.000E+00  1.06890E+03  2.393E+00  1.200E+01  6.000E-02  1.798E+00
   1    6    6     2     3    7.8011E+01  3.2323E-01   7.7688E+01  0.000E+00  0.000E+00  0.000E+00  1.06418E+03  2.387E+00  1.200E+01  6.000E-02  1.796E+00
   1    7    6     2     4    7.7688E+01  3.2288E-01   7.7365E+01  0.000E+00  0.000E+00  0.000E+00  1.05946E+03  2.381E+00  1.200E+01  6.000E-02  1.794E+00
   1    8    6     2     5    7.7365E+01  3.2252E-01   7.7042E+01  0.000E+00  0.000E+00  0.000E+00  1.05473E+03  2.375E+00  1.200E+01  6.000E-02  1.792E+00
   1    3    5     3     1    2.0000E+00  2.8252E-01   1.7175E+00  0.000E+00  0.000E+00  0.000E+00  1.07555E+03  1.909E+00  9.636E+00  7.227E-02  1.955E+00
   1    3    6     3     2    1.7175E+00  2.4905E-01   1.4684E+00  0.000E+00  0.000E+00  0.000E+00  1.07264E+03  1.727E+00  8.909E+00  6.682E-02  1.864E+00
   1    3    7     3     3    1.4684E+00  1.9718E-01   1.2712E+00  0.000E+00  0.000E+00  0.000E+00  1.06987E+03  1.555E+00  8.218E+00  5.547E-02  1.777E+00
   1    4    8     3     4    1.2712E+00  2.2567E-01   1.0456E+00  0.000E+00  0.000E+00  0.000E+00  1.06682E+03  1.364E+00  7.455E+00  6.709E-02  1.682E+00
   1    5    8     3     5    1.0456E+00  1.5790E-01   8.8768E-01  0.000E+00  0.000E+00  0.000E+00  1.06362E+03  1.164E+00  6.655E+00  4.991E-02  1.582E+00
   1    6    8     3     6    8.8768E-01  5.5980E-02   8.3170E-01  0.000E+00  0.000E+00  0.000E+00  1.06158E+03  1.036E+00  6.145E+00  1.844E-02  1.518E+00
   1    5   10     4     1    1.0000E+01  9.0919E-02   9.9091E+00  0.000E+00  0.000E+00  0.000E+00  1.07836E+03  6.368E-01  1.000E+01  2.500E-02  1.212E+00
   1    5    9     4     2    9.9091E+00  1.8158E-01   9.7275E+00  0.000E+00  0.000E+00  0.000E+00  1.07154E+03  6.315E-01  1.000E+01  5.000E-02  1.211E+00
   1    6    8     4     3    9.7275E+00  1.2689E-01   9.6006E+00  0.000E+00  0.000E+00  0.000E+00  1.06381E+03  6.256E-01  1.000E+01  3.500E-02  1.209E+00
   1    6    8     5     1    1.0432E+01  2.2686E-01   1.0205E+01  0.000E+00  0.000E+00  0.000E+00  1.05868E+03  6.790E-01  1.542E+01  6.166E-02  1.226E+00
   1    7    7     5     2    1.0205E+01  2.7894E-01   9.9265E+00  0.000E+00  0.000E+00  0.000E+00  1.05417E+03  6.732E-01  1.519E+01  7.594E-02  1.224E+00
   1    8    7     5     3    9.9265E+00  1.9221E-01   9.7343E+00  0.000E+00  0.000E+00  0.000E+00  1.04992E+03  6.676E-01  1.497E+01  5.241E-02  1.223E+00
   1    8    6     5     4    9.7343E+00  1.3577E-01   9.5985E+00  0.000E+00  0.000E+00  0.000E+00  1.04691E+03  6.637E-01  1.482E+01  3.706E-02  1.221E+00
   1    9    6     6     1    8.6641E+01  3.3426E-01   8.6306E+01  0.000E+00  0.000E+00  0.000E+00  1.04530E+03  2.571E+00  1.200E+01  6.000E-02  1.857E+00
   1   10    7     6     2    8.6306E+01  3.3390E-01   8.5973E+01  0.000E+00  0.000E+00  0.000E+00  1.04075E+03  2.565E+00  1.200E+01  6.000E-02  1.855E+00
   1   11    7     6     3    8.5973E+01  3.3354E-01   8.5639E+01  0.000E+00  0.000E+00  0.000E+00  1.03620E+03  2.559E+00  1.200E+01  6.000E-02  1.853E+00
   1   12    7     6     4    8.5639E+01  3.3319E-01   8.5306E+01  0.000E+00  0.000E+00  0.000E+00  1.03164E+03  2.553E+00  1.200E+01  6.000E-02  1.851E+00
   1   13    7     6     5    8.5306E+01  2.9843E-02   8.5276E+01  0.000E+00  0.000E+00  0.000E+00  1.02846E+03  2.550E+00  1.200E+01  2.400E-02  4.145E-01
   1   14    9     7     1    1.5000E+02  1.3319E+00   1.4867E+02  0.000E+00  0.000E+00  0.000E+00  1.03987E+03  2.288E+00  5.529E+01  5.593E-01  7.938E-01
   1   13    8     7     2    1.4867E+02  1.8062E+00   1.4686E+02  0.000E+00  0.000E+00  0.000E+00  1.03478E+03  2.279E+00  5.526E+01  6.148E-01  9.793E-01
   1   13    7     7     3    1.4686E+02  1.3821E+00   1.4548E+02  0.000E+00  0.000E+00  0.000E+00  1.02969E+03  2.271E+00  5.522E+01  5.585E-01  8.249E-01
   1   13    6     8     1    2.3076E+02  1.0600E+00   2.2970E+02  0.000E+00  0.000E+00  0.000E+00  1.02518E+03  3.308E+00  4.796E+01  4.888E-01  7.229E-01
   1   13    5     8     2    2.2970E+02  2.2345E-01   2.2947E+02  0.000E+00  0.000E+00  0.000E+00  1.01893E+03  3.304E+00  4.791E+01  4.882E-01  1.526E-01
   1   13    4     8     3    2.2947E+02 -2.1039E+00   2.3158E+02  0.000E+00  0.000E+00  0.000E+00  1.01268E+03  3.309E+00  4.799E+01  4.890E+00 -1.434E-01
   1   13    3     8     4    2.3158E+02 -3.2877E+00   2.3486E+02  0.000E+00  0.000E+00  0.000E+00  1.00645E+03  3.324E+00  4.820E+01  4.911E+00 -2.231E-01
   1   13    2     8     5    2.3486E+02 -2.6435E+00   2.3751E+02  0.000E+00  0.000E+00  0.000E+00  1.00021E+03  3.340E+00  4.842E+01  4.935E+00 -1.786E-01
   1   13    1     8     6    2.3751E+02 -1.9963E+00   2.3950E+02  0.000E+00  0.000E+00  0.000E+00  9.95227E+02  3.352E+00  4.860E+01  2.972E+00 -2.239E-01



 UBDSV3 SAVING "           GW ET" ON UNIT  61 AT TIME STEP  5, STRESS PERIOD   7
 UBDSV3 SAVING "    UZF RECHARGE" ON UNIT  61 AT TIME STEP  5, STRESS PERIOD   7
 UBDSV3 SAVING " SURFACE LEAKAGE" ON UNIT  61 AT TIME STEP  5, STRESS PERIOD   7
 UBDSV3 SAVING "       HORT+DUNN" ON UNIT  61 AT TIME STEP  5, STRESS PERIOD   7
 UBDSV3 SAVING "  STORAGE CHANGE" ON UNIT  61 AT TIME STEP  5, STRESS PERIOD   7


UNSATURATED ZONE PACKAGE VOLUMETRIC BUDGET FOR  TIME STEP     5 STRESS PERIOD    7
  ------------------------------------------------------------------------------



     CUMULATIVE VOLUMES      L**3       RATES FOR THIS TIME STEP      L**3/T
     ------------------                 ------------------------

           IN:                                      IN:
           ---                                      ---
        INFILTRATION =    96685887.3723          INFILTRATION =          26.5137

          OUT:                                     OUT:
          ----                                     ----
              UZF ET =    78011607.4807                UZF ET =          26.6075
        UZF RECHARGE =       73224.0000          UZF RECHARGE =       0.0000E+00

            IN - OUT =    18601055.8916              IN - OUT =      -9.3801E-02

          STORAGE:                                 STORAGE:
          --------                                 --------
      STORAGE CHANGE =    18601054.8793        STORAGE CHANGE =      -9.3803E-02

 PERCENT DISCREPANCY IS DIFFERENCE BETWEEN IN-OUT MINUS CHANGE IN STORAGE
 DIVIDED BY THE AVERAGE OF IN AND OUT TIMES 100

 PERCENT DISCREPANCY =           0.00     PERCENT DISCREPANCY =           0.00






 

            AG WELLS      PERIOD    7   STEP   5
 AG WELL      1   LAYER   1   ROW     6   COL     4   RATE    -3.71636    
 AG WELL      2   LAYER   1   ROW     6   COL     5   RATE    -3.69804    
 AG WELL      3   LAYER   1   ROW     7   COL     4   RATE    -3.71358    
 AG WELL      4   LAYER   1   ROW     7   COL     5   RATE    -3.67839    
 AG WELL      5   LAYER   1   ROW     8   COL     4   RATE    -3.71358    
 AG WELL      6   LAYER   1   ROW     8   COL     5   RATE    -3.58625    
 
 

        GW IRRIGATION     PERIOD    7   STEP   5
 AG WELL      1   ROW     6   COL     4   RATE     3.71636    
 AG WELL      2   ROW     6   COL     5   RATE     3.69804    
 AG WELL      3   ROW     7   COL     4   RATE     3.71358    
 AG WELL      4   ROW     7   COL     5   RATE     3.67839    
 AG WELL      5   ROW     8   COL     4   RATE     3.71358    
 AG WELL      6   ROW     8   COL     5   RATE     3.58625    
 
1
  VOLUMETRIC BUDGET FOR AGRICULTURAL FIELDS AT TIME STEP    5, STRESS PERIOD   7
  ------------------------------------------------------------------------------

     CUMULATIVE VOLUMES      L**3       RATES FOR THIS TIME STEP      L**3/T
     ------------------                 ------------------------

           IN:                                      IN:
           ---                                      ---
               AG WELLS  =    36722084.0000                 AG WELLS  =          22.1062
      DIVERSION SEGMENTS =           0.0000        DIVERSION SEGMENTS =           0.0000
           GW IRRIGATION =           0.0000             GW IRRIGATION =           0.0000
           SW IRRIGATION =           0.0000             SW IRRIGATION =           0.0000
        SYSTEM LOSSES GW =           0.0000          SYSTEM LOSSES GW =           0.0000
        SYSTEM LOSSES SW =           0.0000          SYSTEM LOSSES SW =           0.0000

                TOTAL IN =    36722084.0000                  TOTAL IN =          22.1062

          OUT:                                     OUT:
          ----                                     ----
               AG WELLS  =           0.0000                 AG WELLS  =           0.0000
      DIVERSION SEGMENTS =           0.0000        DIVERSION SEGMENTS =           0.0000
           GW IRRIGATION =    36722084.0000             GW IRRIGATION =          22.1062
           SW IRRIGATION =           0.0000             SW IRRIGATION =           0.0000
        SYSTEM LOSSES GW =           0.0000          SYSTEM LOSSES GW =           0.0000
        SYSTEM LOSSES SW =           0.0000          SYSTEM LOSSES SW =           0.0000

               TOTAL OUT =    36722084.0000                 TOTAL OUT =          22.1062

                IN - OUT =           0.0000                  IN - OUT =           0.0000

     PERCENT DISCREPANCY =           0.00         PERCENT DISCREPANCY =           0.00



1
  VOLUMETRIC BUDGET FOR ENTIRE MODEL AT END OF TIME STEP    5, STRESS PERIOD   7
  ------------------------------------------------------------------------------

     CUMULATIVE VOLUMES      L**3       RATES FOR THIS TIME STEP      L**3/T
     ------------------                 ------------------------

           IN:                                      IN:
           ---                                      ---
             STORAGE     =    44074856.0000               STORAGE     =          22.4406
       CONSTANT HEAD     =           0.0000         CONSTANT HEAD     =           0.0000
     HEAD DEP BOUNDS     =     3903409.5000       HEAD DEP BOUNDS     =           0.2855
      STREAM LEAKAGE     =   172599424.0000        STREAM LEAKAGE     =          13.5281
        UZF RECHARGE     =       73223.9531          UZF RECHARGE     =           0.0000
               GW ET     =           0.0000                 GW ET     =           0.0000
     SURFACE LEAKAGE     =           0.0000       SURFACE LEAKAGE     =           0.0000
           AG WELLS      =           0.0000             AG WELLS      =           0.0000

                TOTAL IN =   220650912.0000                  TOTAL IN =          36.2542

          OUT:                                     OUT:
          ----                                     ----
             STORAGE     =    37955500.0000               STORAGE     =           2.0948
       CONSTANT HEAD     =           0.0000         CONSTANT HEAD     =           0.0000
     HEAD DEP BOUNDS     =     4016795.2500       HEAD DEP BOUNDS     =           0.3001
      STREAM LEAKAGE     =   139187456.0000        STREAM LEAKAGE     =          10.0315
        UZF RECHARGE     =           0.0000          UZF RECHARGE     =           0.0000
               GW ET     =     2771740.5000                 GW ET     =           1.7216
     SURFACE LEAKAGE     =           0.0000       SURFACE LEAKAGE     =           0.0000
           AG WELLS      =    36722084.0000             AG WELLS      =          22.1062

               TOTAL OUT =   220653568.0000                 TOTAL OUT =          36.2542

                IN - OUT =       -2656.0000                  IN - OUT =      -6.8665E-05

     PERCENT DISCREPANCY =          -0.00         PERCENT DISCREPANCY =          -0.00






         TIME SUMMARY AT END OF TIME STEP    5 IN STRESS PERIOD    7
                    SECONDS     MINUTES      HOURS       DAYS        YEARS
                    -----------------------------------------------------------
   TIME STEP LENGTH  87667.      1461.1      24.352      1.0147     2.77799E-03
 STRESS PERIOD TIME 4.38333E+05  7305.6      121.76      5.0733     1.38899E-02
         TOTAL TIME 1.36747E+07 2.27912E+05  3798.5      158.27     0.43333    
1
 
 SOLVING FOR HEAD 
                                                   Max.-Head-Change                         Max.-Flux-Residual
  Residual-Control   Outer-Iter.   Inner-Iter.     Column Row Layer    Maximum-Head-Change  Column Row Layer    Maximum-Flux-Residual          L2-NORM 
          0                 1           2             4    7     1      -0.6076699802E-01       4    7    1        -0.3182332220E+01      0.7204883464E+01
          0                 2           2             4    7     1       0.5910919116E-02       4    7    1         0.3182298237E+00      0.7203832203E+00
          0                 3           2             4    7     1      -0.4025164722E-03       4    7    1        -0.2227636560E-01      0.5041865360E-01
          0                 4           1             4    7     1       0.1601230125E-04       4    7    1         0.9108660647E-03      0.2061018121E-02

    ------------------------------------------------
       NWT REQUIRED            4 OUTER ITERATIONS 
       AND A TOTAL OF          7 INNER ITERATIONS.
    ------------------------------------------------

 NO OUTPUT CONTROL FOR STRESS PERIOD    7   TIME STEP    6
 
 SOLVING FOR HEAD 
                                                   Max.-Head-Change                         Max.-Flux-Residual
  Residual-Control   Outer-Iter.   Inner-Iter.     Column Row Layer    Maximum-Head-Change  Column Row Layer    Maximum-Flux-Residual          L2-NORM 
          0                 1           2             4    7     1      -0.6027928630E-01       4    7    1        -0.3157544620E+01      0.7102437581E+01
          0                 2           2             4    7     1       0.5863476994E-02       4    7    1         0.3157509865E+00      0.7101680512E+00
          0                 3           2             4    7     1      -0.3992858498E-03       4    7    1        -0.2210284765E-01      0.4970615744E-01
          0                 4           1             4    7     1       0.1588375185E-04       4    7    1         0.9037691659E-03      0.2031938878E-02

    ------------------------------------------------
       NWT REQUIRED            4 OUTER ITERATIONS 
       AND A TOTAL OF          7 INNER ITERATIONS.
    ------------------------------------------------

 NO OUTPUT CONTROL FOR STRESS PERIOD    7   TIME STEP    7
 
 SOLVING FOR HEAD 
                                                   Max.-Head-Change                         Max.-Flux-Residual
  Residual-Control   Outer-Iter.   Inner-Iter.     Column Row Layer    Maximum-Head-Change  Column Row Layer    Maximum-Flux-Residual          L2-NORM 
          0                 1           2             4    7     1      -0.5978238285E-01       4    7    1        -0.3132208345E+01      0.7006148978E+01
          0                 2           2             4    7     1       0.5815140959E-02       4    7    1         0.3132172950E+00      0.7005597145E+00
          0                 3           2             4    7     1      -0.3959943537E-03       4    7    1        -0.2192548977E-01      0.4903543731E-01
          0                 4           1             4    7     1       0.1575278015E-04       4    7    1         0.8965152217E-03      0.2004715419E-02

    ------------------------------------------------
       NWT REQUIRED            4 OUTER ITERATIONS 
       AND A TOTAL OF          7 INNER ITERATIONS.
    ------------------------------------------------

 NO OUTPUT CONTROL FOR STRESS PERIOD    7   TIME STEP    8
 
 SOLVING FOR HEAD 
                                                   Max.-Head-Change                         Max.-Flux-Residual
  Residual-Control   Outer-Iter.   Inner-Iter.     Column Row Layer    Maximum-Head-Change  Column Row Layer    Maximum-Flux-Residual          L2-NORM 
          0                 1           2             4    7     1      -0.5927759764E-01       4    7    1        -0.3106396207E+01      0.6914963966E+01
          0                 2           2             4    7     1       0.5766038418E-02       4    7    1         0.3106360293E+00      0.6914554119E+00
          0                 3           2             4    7     1      -0.3926506597E-03       4    7    1        -0.2174480160E-01      0.4839943998E-01
          0                 4           1             4    7     1       0.1561973133E-04       4    7    1         0.8891250636E-03      0.1978770233E-02

    ------------------------------------------------
       NWT REQUIRED            4 OUTER ITERATIONS 
       AND A TOTAL OF          7 INNER ITERATIONS.
    ------------------------------------------------

 NO OUTPUT CONTROL FOR STRESS PERIOD    7   TIME STEP    9
 
 SOLVING FOR HEAD 
                                                   Max.-Head-Change                         Max.-Flux-Residual
  Residual-Control   Outer-Iter.   Inner-Iter.     Column Row Layer    Maximum-Head-Change  Column Row Layer    Maximum-Flux-Residual          L2-NORM 
          0                 1           2             4    7     1      -0.5876558195E-01       4    7    1        -0.3080145593E+01      0.6828104273E+01
          0                 2           2             4    7     1       0.5716232713E-02       4    7    1         0.3080109272E+00      0.6827795960E+00
          0                 3           2             4    7     1      -0.3892590809E-03       4    7    1        -0.2156104475E-01      0.4779308147E-01
          0                 4           1             4    7     1       0.1548477692E-04       4    7    1         0.8816093909E-03      0.1954153656E-02

    ------------------------------------------------
       NWT REQUIRED            4 OUTER ITERATIONS 
       AND A TOTAL OF          7 INNER ITERATIONS.
    ------------------------------------------------

 OUTPUT CONTROL FOR STRESS PERIOD    7   TIME STEP   10
    PRINT BUDGET
    SAVE BUDGET
 UBDSV1 SAVING "         STORAGE" ON UNIT 102 AT TIME STEP 10, STRESS PERIOD   7
 UBDSV2 SAVING "   CONSTANT HEAD" ON UNIT 102 AT TIME STEP 10, STRESS PERIOD   7
 UBDSV1 SAVING "FLOW RIGHT FACE " ON UNIT 102 AT TIME STEP 10, STRESS PERIOD   7
 UBDSV1 SAVING "FLOW FRONT FACE " ON UNIT 102 AT TIME STEP 10, STRESS PERIOD   7

  HEAD DEP BOUNDS   PERIOD    7   STEP    10
 BOUNDARY      1   LAYER   1   ROW    13   COL     1   RATE   -0.300047    
 BOUNDARY      2   LAYER   1   ROW    14   COL     9   RATE    0.285490    



 STREAM LISTING     PERIOD      7   STEP       10

 LAYER ROW COL. STREAM  RCH.  FLOW INTO     FLOW TO   FLOW OUT OF   OVRLND.     DIRECT     STREAM       STREAM     STREAM     STREAM   STREAMBED  STREAMBED
                SEG.NO.  NO.  STRM. RCH.    AQUIFER    STRM. RCH.    RUNOFF     PRECIP       ET          HEAD       DEPTH      WIDTH   CONDCTNC.   GRADIENT

   1    1    1     1     1    8.3000E+01  4.4019E-01   8.2560E+01  0.000E+00  0.000E+00  0.000E+00  1.09478E+03  1.734E+00  2.066E+01  9.299E-02  1.578E+00
   1    2    2     1     2    8.2560E+01  6.8286E-01   8.1877E+01  0.000E+00  0.000E+00  0.000E+00  1.08979E+03  1.731E+00  2.062E+01  1.443E-01  1.577E+00
   1    3    3     1     3    8.1877E+01  5.8349E-01   8.1294E+01  0.000E+00  0.000E+00  0.000E+00  1.08415E+03  1.729E+00  2.057E+01  1.234E-01  1.576E+00
   1    3    4     1     4    8.1294E+01  5.3822E-01   8.0756E+01  0.000E+00  0.000E+00  0.000E+00  1.07913E+03  1.726E+00  2.052E+01  1.139E-01  1.575E+00
   1    4    5     2     1    7.8756E+01  4.2120E-01   7.8334E+01  0.000E+00  0.000E+00  0.000E+00  1.07433E+03  2.400E+00  1.200E+01  7.800E-02  1.800E+00
   1    5    6     2     2    7.8334E+01  3.2359E-01   7.8011E+01  0.000E+00  0.000E+00  0.000E+00  1.06890E+03  2.393E+00  1.200E+01  6.000E-02  1.798E+00
   1    6    6     2     3    7.8011E+01  3.2323E-01   7.7688E+01  0.000E+00  0.000E+00  0.000E+00  1.06418E+03  2.387E+00  1.200E+01  6.000E-02  1.796E+00
   1    7    6     2     4    7.7688E+01  3.2288E-01   7.7365E+01  0.000E+00  0.000E+00  0.000E+00  1.05946E+03  2.381E+00  1.200E+01  6.000E-02  1.794E+00
   1    8    6     2     5    7.7365E+01  3.2252E-01   7.7042E+01  0.000E+00  0.000E+00  0.000E+00  1.05473E+03  2.375E+00  1.200E+01  6.000E-02  1.792E+00
   1    3    5     3     1    2.0000E+00  2.8252E-01   1.7175E+00  0.000E+00  0.000E+00  0.000E+00  1.07555E+03  1.909E+00  9.636E+00  7.227E-02  1.955E+00
   1    3    6     3     2    1.7175E+00  2.4905E-01   1.4684E+00  0.000E+00  0.000E+00  0.000E+00  1.07264E+03  1.727E+00  8.909E+00  6.682E-02  1.864E+00
   1    3    7     3     3    1.4684E+00  1.9718E-01   1.2712E+00  0.000E+00  0.000E+00  0.000E+00  1.06987E+03  1.555E+00  8.218E+00  5.547E-02  1.777E+00
   1    4    8     3     4    1.2712E+00  2.2567E-01   1.0456E+00  0.000E+00  0.000E+00  0.000E+00  1.06682E+03  1.364E+00  7.455E+00  6.709E-02  1.682E+00
   1    5    8     3     5    1.0456E+00  1.5790E-01   8.8768E-01  0.000E+00  0.000E+00  0.000E+00  1.06362E+03  1.164E+00  6.655E+00  4.991E-02  1.582E+00
   1    6    8     3     6    8.8768E-01  5.5980E-02   8.3170E-01  0.000E+00  0.000E+00  0.000E+00  1.06158E+03  1.036E+00  6.145E+00  1.844E-02  1.518E+00
   1    5   10     4     1    1.0000E+01  9.0919E-02   9.9091E+00  0.000E+00  0.000E+00  0.000E+00  1.07836E+03  6.368E-01  1.000E+01  2.500E-02  1.212E+00
   1    5    9     4     2    9.9091E+00  1.8158E-01   9.7275E+00  0.000E+00  0.000E+00  0.000E+00  1.07154E+03  6.315E-01  1.000E+01  5.000E-02  1.211E+00
   1    6    8     4     3    9.7275E+00  1.2689E-01   9.6006E+00  0.000E+00  0.000E+00  0.000E+00  1.06381E+03  6.256E-01  1.000E+01  3.500E-02  1.209E+00
   1    6    8     5     1    1.0432E+01  2.2686E-01   1.0205E+01  0.000E+00  0.000E+00  0.000E+00  1.05868E+03  6.790E-01  1.542E+01  6.166E-02  1.226E+00
   1    7    7     5     2    1.0205E+01  2.7894E-01   9.9265E+00  0.000E+00  0.000E+00  0.000E+00  1.05417E+03  6.732E-01  1.519E+01  7.594E-02  1.224E+00
   1    8    7     5     3    9.9265E+00  1.9221E-01   9.7343E+00  0.000E+00  0.000E+00  0.000E+00  1.04992E+03  6.676E-01  1.497E+01  5.241E-02  1.223E+00
   1    8    6     5     4    9.7343E+00  1.3577E-01   9.5985E+00  0.000E+00  0.000E+00  0.000E+00  1.04691E+03  6.637E-01  1.482E+01  3.706E-02  1.221E+00
   1    9    6     6     1    8.6641E+01  3.3426E-01   8.6306E+01  0.000E+00  0.000E+00  0.000E+00  1.04530E+03  2.571E+00  1.200E+01  6.000E-02  1.857E+00
   1   10    7     6     2    8.6306E+01  3.3390E-01   8.5973E+01  0.000E+00  0.000E+00  0.000E+00  1.04075E+03  2.565E+00  1.200E+01  6.000E-02  1.855E+00
   1   11    7     6     3    8.5973E+01  3.3354E-01   8.5639E+01  0.000E+00  0.000E+00  0.000E+00  1.03620E+03  2.559E+00  1.200E+01  6.000E-02  1.853E+00
   1   12    7     6     4    8.5639E+01  3.3319E-01   8.5306E+01  0.000E+00  0.000E+00  0.000E+00  1.03164E+03  2.553E+00  1.200E+01  6.000E-02  1.851E+00
   1   13    7     6     5    8.5306E+01  2.9752E-02   8.5276E+01  0.000E+00  0.000E+00  0.000E+00  1.02846E+03  2.550E+00  1.200E+01  2.400E-02  4.132E-01
   1   14    9     7     1    1.5000E+02  1.3319E+00   1.4867E+02  0.000E+00  0.000E+00  0.000E+00  1.03987E+03  2.288E+00  5.529E+01  5.593E-01  7.938E-01
   1   13    8     7     2    1.4867E+02  1.8054E+00   1.4686E+02  0.000E+00  0.000E+00  0.000E+00  1.03478E+03  2.279E+00  5.526E+01  6.148E-01  9.789E-01
   1   13    7     7     3    1.4686E+02  1.3800E+00   1.4548E+02  0.000E+00  0.000E+00  0.000E+00  1.02969E+03  2.271E+00  5.522E+01  5.585E-01  8.237E-01
   1   13    6     8     1    2.3076E+02  1.0580E+00   2.2970E+02  0.000E+00  0.000E+00  0.000E+00  1.02518E+03  3.308E+00  4.796E+01  4.888E-01  7.215E-01
   1   13    5     8     2    2.2970E+02  2.2269E-01   2.2948E+02  0.000E+00  0.000E+00  0.000E+00  1.01893E+03  3.304E+00  4.791E+01  4.882E-01  1.520E-01
   1   13    4     8     3    2.2948E+02 -2.0155E+00   2.3149E+02  0.000E+00  0.000E+00  0.000E+00  1.01268E+03  3.309E+00  4.798E+01  4.890E+00 -1.374E-01
   1   13    3     8     4    2.3149E+02 -3.1950E+00   2.3469E+02  0.000E+00  0.000E+00  0.000E+00  1.00645E+03  3.323E+00  4.819E+01  4.910E+00 -2.169E-01
   1   13    2     8     5    2.3469E+02 -2.5916E+00   2.3728E+02  0.000E+00  0.000E+00  0.000E+00  1.00021E+03  3.339E+00  4.841E+01  4.933E+00 -1.751E-01
   1   13    1     8     6    2.3728E+02 -1.9911E+00   2.3927E+02  0.000E+00  0.000E+00  0.000E+00  9.95226E+02  3.351E+00  4.858E+01  2.971E+00 -2.234E-01



 UBDSV3 SAVING "           GW ET" ON UNIT  61 AT TIME STEP 10, STRESS PERIOD   7
 UBDSV3 SAVING "    UZF RECHARGE" ON UNIT  61 AT TIME STEP 10, STRESS PERIOD   7
 UBDSV3 SAVING " SURFACE LEAKAGE" ON UNIT  61 AT TIME STEP 10, STRESS PERIOD   7
 UBDSV3 SAVING "       HORT+DUNN" ON UNIT  61 AT TIME STEP 10, STRESS PERIOD   7
 UBDSV3 SAVING "  STORAGE CHANGE" ON UNIT  61 AT TIME STEP 10, STRESS PERIOD   7


UNSATURATED ZONE PACKAGE VOLUMETRIC BUDGET FOR  TIME STEP    10 STRESS PERIOD    7
  ------------------------------------------------------------------------------



     CUMULATIVE VOLUMES      L**3       RATES FOR THIS TIME STEP      L**3/T
     ------------------                 ------------------------

           IN:                                      IN:
           ---                                      ---
        INFILTRATION =   108313201.0940          INFILTRATION =          26.5335

          OUT:                                     OUT:
          ----                                     ----
              UZF ET =    89674561.5774                UZF ET =          26.6075
        UZF RECHARGE =       73224.0000          UZF RECHARGE =       0.0000E+00

            IN - OUT =    18565415.5166              IN - OUT =      -7.4001E-02

          STORAGE:                                 STORAGE:
          --------                                 --------
      STORAGE CHANGE =    18565414.4185        STORAGE CHANGE =      -7.4002E-02

 PERCENT DISCREPANCY IS DIFFERENCE BETWEEN IN-OUT MINUS CHANGE IN STORAGE
 DIVIDED BY THE AVERAGE OF IN AND OUT TIMES 100

 PERCENT DISCREPANCY =           0.00     PERCENT DISCREPANCY =           0.00






 

            AG WELLS      PERIOD    7   STEP  10
 AG WELL      1   LAYER   1   ROW     6   COL     4   RATE    -3.71692    
 AG WELL      2   LAYER   1   ROW     6   COL     5   RATE    -3.70003    
 AG WELL      3   LAYER   1   ROW     7   COL     4   RATE    -3.71420    
 AG WELL      4   LAYER   1   ROW     7   COL     5   RATE    -3.68226    
 AG WELL      5   LAYER   1   ROW     8   COL     4   RATE    -3.71420    
 AG WELL      6   LAYER   1   ROW     8   COL     5   RATE    -3.59839    
 
 

        GW IRRIGATION     PERIOD    7   STEP  10
 AG WELL      1   ROW     6   COL     4   RATE     3.71692    
 AG WELL      2   ROW     6   COL     5   RATE     3.70003    
 AG WELL      3   ROW     7   COL     4   RATE     3.71420    
 AG WELL      4   ROW     7   COL     5   RATE     3.68226    
 AG WELL      5   ROW     8   COL     4   RATE     3.71420    
 AG WELL      6   ROW     8   COL     5   RATE     3.59839    
 
1
  VOLUMETRIC BUDGET FOR AGRICULTURAL FIELDS AT TIME STEP   10, STRESS PERIOD   7
  ------------------------------------------------------------------------------

     CUMULATIVE VOLUMES      L**3       RATES FOR THIS TIME STEP      L**3/T
     ------------------                 ------------------------

           IN:                                      IN:
           ---                                      ---
               AG WELLS  =    46417440.0000                 AG WELLS  =          22.1260
      DIVERSION SEGMENTS =           0.0000        DIVERSION SEGMENTS =           0.0000
           GW IRRIGATION =           0.0000             GW IRRIGATION =           0.0000
           SW IRRIGATION =           0.0000             SW IRRIGATION =           0.0000
        SYSTEM LOSSES GW =           0.0000          SYSTEM LOSSES GW =           0.0000
        SYSTEM LOSSES SW =           0.0000          SYSTEM LOSSES SW =           0.0000

                TOTAL IN =    46417440.0000                  TOTAL IN =          22.1260

          OUT:                                     OUT:
          ----                                     ----
               AG WELLS  =           0.0000                 AG WELLS  =           0.0000
      DIVERSION SEGMENTS =           0.0000        DIVERSION SEGMENTS =           0.0000
           GW IRRIGATION =    46417440.0000             GW IRRIGATION =          22.1260
           SW IRRIGATION =           0.0000             SW IRRIGATION =           0.0000
        SYSTEM LOSSES GW =           0.0000          SYSTEM LOSSES GW =           0.0000
        SYSTEM LOSSES SW =           0.0000          SYSTEM LOSSES SW =           0.0000

               TOTAL OUT =    46417440.0000                 TOTAL OUT =          22.1260

                IN - OUT =           0.0000                  IN - OUT =           0.0000

     PERCENT DISCREPANCY =           0.00         PERCENT DISCREPANCY =           0.00



1
  VOLUMETRIC BUDGET FOR ENTIRE MODEL AT END OF TIME STEP   10, STRESS PERIOD   7
  ------------------------------------------------------------------------------

     CUMULATIVE VOLUMES      L**3       RATES FOR THIS TIME STEP      L**3/T
     ------------------                 ------------------------

           IN:                                      IN:
           ---                                      ---
             STORAGE     =    53729644.0000               STORAGE     =          21.8283
       CONSTANT HEAD     =           0.0000         CONSTANT HEAD     =           0.0000
     HEAD DEP BOUNDS     =     4028549.5000       HEAD DEP BOUNDS     =           0.2855
      STREAM LEAKAGE     =   178527680.0000        STREAM LEAKAGE     =          13.5222
        UZF RECHARGE     =       73223.9531          UZF RECHARGE     =           0.0000
               GW ET     =           0.0000                 GW ET     =           0.0000
     SURFACE LEAKAGE     =           0.0000       SURFACE LEAKAGE     =           0.0000
           AG WELLS      =           0.0000             AG WELLS      =           0.0000

                TOTAL IN =   236359088.0000                  TOTAL IN =          35.6360

          OUT:                                     OUT:
          ----                                     ----
             STORAGE     =    38838332.0000               STORAGE     =           1.9737
       CONSTANT HEAD     =           0.0000         CONSTANT HEAD     =           0.0000
     HEAD DEP BOUNDS     =     4148333.2500       HEAD DEP BOUNDS     =           0.3000
      STREAM LEAKAGE     =   143514736.0000        STREAM LEAKAGE     =           9.7933
        UZF RECHARGE     =           0.0000          UZF RECHARGE     =           0.0000
               GW ET     =     3442912.2500                 GW ET     =           1.4430
     SURFACE LEAKAGE     =           0.0000       SURFACE LEAKAGE     =           0.0000
           AG WELLS      =    46417440.0000             AG WELLS      =          22.1260

               TOTAL OUT =   236361760.0000                 TOTAL OUT =          35.6361

                IN - OUT =       -2672.0000                  IN - OUT =      -7.2479E-05

     PERCENT DISCREPANCY =          -0.00         PERCENT DISCREPANCY =          -0.00






         TIME SUMMARY AT END OF TIME STEP   10 IN STRESS PERIOD    7
                    SECONDS     MINUTES      HOURS       DAYS        YEARS
                    -----------------------------------------------------------
   TIME STEP LENGTH  87667.      1461.1      24.352      1.0147     2.77799E-03
 STRESS PERIOD TIME 8.76667E+05  14611.      243.52      10.147     2.77799E-02
         TOTAL TIME 1.41131E+07 2.35218E+05  3920.3      163.35     0.44722    
1
 
 SOLVING FOR HEAD 
                                                   Max.-Head-Change                         Max.-Flux-Residual
  Residual-Control   Outer-Iter.   Inner-Iter.     Column Row Layer    Maximum-Head-Change  Column Row Layer    Maximum-Flux-Residual          L2-NORM 
          0                 1           2             4    7     1      -0.5824804025E-01       4    7    1        -0.3053549919E+01      0.6745053067E+01
          0                 2           2             4    7     1       0.5665889621E-02       4    7    1         0.3053513292E+00      0.6744815482E+00
          0                 3           2             4    7     1      -0.3858309069E-03       4    7    1        -0.2137487309E-01      0.4721279597E-01
          0                 4           1             4    7     1       0.1534836706E-04       4    7    1         0.8739949646E-03      0.1930369279E-02

    ------------------------------------------------
       NWT REQUIRED            4 OUTER ITERATIONS 
       AND A TOTAL OF          7 INNER ITERATIONS.
    ------------------------------------------------

 NO OUTPUT CONTROL FOR STRESS PERIOD    7   TIME STEP   11
 
 SOLVING FOR HEAD 
                                                   Max.-Head-Change                         Max.-Flux-Residual
  Residual-Control   Outer-Iter.   Inner-Iter.     Column Row Layer    Maximum-Head-Change  Column Row Layer    Maximum-Flux-Residual          L2-NORM 
          0                 1           2             4    7     1      -0.5772546849E-01       4    7    1        -0.3026638159E+01      0.6665358209E+01
          0                 2           2             4    7     1       0.5615057379E-02       4    7    1         0.3026601319E+00      0.6665171109E+00
          0                 3           2             4    7     1      -0.3823694225E-03       4    7    1        -0.2118648942E-01      0.4665572261E-01
          0                 4           1             4    7     1       0.1521063116E-04       4    7    1         0.8662900548E-03      0.1907587682E-02

    ------------------------------------------------
       NWT REQUIRED            4 OUTER ITERATIONS 
       AND A TOTAL OF          7 INNER ITERATIONS.
    ------------------------------------------------

 NO OUTPUT CONTROL FOR STRESS PERIOD    7   TIME STEP   12
 
 SOLVING FOR HEAD 
                                                   Max.-Head-Change                         Max.-Flux-Residual
  Residual-Control   Outer-Iter.   Inner-Iter.     Column Row Layer    Maximum-Head-Change  Column Row Layer    Maximum-Flux-Residual          L2-NORM 
          0                 1           2             4    7     1      -0.5719939998E-01       4    7    1        -0.2999495184E+01      0.6588706716E+01
          0                 2           2             4    7     1       0.5563885118E-02       4    7    1         0.2999458214E+00      0.6588555751E+00
          0                 3           2             4    7     1      -0.3788847823E-03       4    7    1        -0.2099648772E-01      0.4611970657E-01
          0                 4           1             4    7     1       0.1507197401E-04       4    7    1         0.8585189678E-03      0.1885687087E-02

    ------------------------------------------------
       NWT REQUIRED            4 OUTER ITERATIONS 
       AND A TOTAL OF          7 INNER ITERATIONS.
    ------------------------------------------------

 NO OUTPUT CONTROL FOR STRESS PERIOD    7   TIME STEP   13
 
 SOLVING FOR HEAD 
                                                   Max.-Head-Change                         Max.-Flux-Residual
  Residual-Control   Outer-Iter.   Inner-Iter.     Column Row Layer    Maximum-Head-Change  Column Row Layer    Maximum-Flux-Residual          L2-NORM 
          0                 1           2             4    7     1      -0.5667046607E-01       4    7    1        -0.2972156609E+01      0.6514832346E+01
          0                 2           2             4    7     1       0.5512434240E-02       4    7    1         0.2972119586E+00      0.6514707843E+00
          0                 3           2             4    7     1      -0.3753811685E-03       4    7    1        -0.2080511728E-01      0.4560298485E-01
          0                 4           1             4    7     1       0.1493256209E-04       4    7    1         0.8506919019E-03      0.1864543190E-02

    ------------------------------------------------
       NWT REQUIRED            4 OUTER ITERATIONS 
       AND A TOTAL OF          7 INNER ITERATIONS.
    ------------------------------------------------

 NO OUTPUT CONTROL FOR STRESS PERIOD    7   TIME STEP   14
 
 SOLVING FOR HEAD 
                                                   Max.-Head-Change                         Max.-Flux-Residual
  Residual-Control   Outer-Iter.   Inner-Iter.     Column Row Layer    Maximum-Head-Change  Column Row Layer    Maximum-Flux-Residual          L2-NORM 
          0                 1           2             4    7     1      -0.5613950017E-01       4    7    1        -0.2944669004E+01      0.6443531694E+01
          0                 2           2             4    7     1       0.5460785806E-02       4    7    1         0.2944631995E+00      0.6443426415E+00
          0                 3           2             4    7     1      -0.3718641012E-03       4    7    1        -0.2061270405E-01      0.4510416527E-01
          0                 4           1             4    7     1       0.1479261482E-04       4    7    1         0.8428222066E-03      0.1844196458E-02

    ------------------------------------------------
       NWT REQUIRED            4 OUTER ITERATIONS 
       AND A TOTAL OF          7 INNER ITERATIONS.
    ------------------------------------------------

 OUTPUT CONTROL FOR STRESS PERIOD    7   TIME STEP   15
    PRINT BUDGET
    SAVE BUDGET
 UBDSV1 SAVING "         STORAGE" ON UNIT 102 AT TIME STEP 15, STRESS PERIOD   7
 UBDSV2 SAVING "   CONSTANT HEAD" ON UNIT 102 AT TIME STEP 15, STRESS PERIOD   7
 UBDSV1 SAVING "FLOW RIGHT FACE " ON UNIT 102 AT TIME STEP 15, STRESS PERIOD   7
 UBDSV1 SAVING "FLOW FRONT FACE " ON UNIT 102 AT TIME STEP 15, STRESS PERIOD   7

  HEAD DEP BOUNDS   PERIOD    7   STEP    15
 BOUNDARY      1   LAYER   1   ROW    13   COL     1   RATE   -0.299956    
 BOUNDARY      2   LAYER   1   ROW    14   COL     9   RATE    0.285489    



 STREAM LISTING     PERIOD      7   STEP       15

 LAYER ROW COL. STREAM  RCH.  FLOW INTO     FLOW TO   FLOW OUT OF   OVRLND.     DIRECT     STREAM       STREAM     STREAM     STREAM   STREAMBED  STREAMBED
                SEG.NO.  NO.  STRM. RCH.    AQUIFER    STRM. RCH.    RUNOFF     PRECIP       ET          HEAD       DEPTH      WIDTH   CONDCTNC.   GRADIENT

   1    1    1     1     1    8.3000E+01  4.4019E-01   8.2560E+01  0.000E+00  0.000E+00  0.000E+00  1.09478E+03  1.734E+00  2.066E+01  9.299E-02  1.578E+00
   1    2    2     1     2    8.2560E+01  6.8286E-01   8.1877E+01  0.000E+00  0.000E+00  0.000E+00  1.08979E+03  1.731E+00  2.062E+01  1.443E-01  1.577E+00
   1    3    3     1     3    8.1877E+01  5.8349E-01   8.1294E+01  0.000E+00  0.000E+00  0.000E+00  1.08415E+03  1.729E+00  2.057E+01  1.234E-01  1.576E+00
   1    3    4     1     4    8.1294E+01  5.3822E-01   8.0756E+01  0.000E+00  0.000E+00  0.000E+00  1.07913E+03  1.726E+00  2.052E+01  1.139E-01  1.575E+00
   1    4    5     2     1    7.8756E+01  4.2120E-01   7.8334E+01  0.000E+00  0.000E+00  0.000E+00  1.07433E+03  2.400E+00  1.200E+01  7.800E-02  1.800E+00
   1    5    6     2     2    7.8334E+01  3.2359E-01   7.8011E+01  0.000E+00  0.000E+00  0.000E+00  1.06890E+03  2.393E+00  1.200E+01  6.000E-02  1.798E+00
   1    6    6     2     3    7.8011E+01  3.2323E-01   7.7688E+01  0.000E+00  0.000E+00  0.000E+00  1.06418E+03  2.387E+00  1.200E+01  6.000E-02  1.796E+00
   1    7    6     2     4    7.7688E+01  3.2288E-01   7.7365E+01  0.000E+00  0.000E+00  0.000E+00  1.05946E+03  2.381E+00  1.200E+01  6.000E-02  1.794E+00
   1    8    6     2     5    7.7365E+01  3.2252E-01   7.7042E+01  0.000E+00  0.000E+00  0.000E+00  1.05473E+03  2.375E+00  1.200E+01  6.000E-02  1.792E+00
   1    3    5     3     1    2.0000E+00  2.8252E-01   1.7175E+00  0.000E+00  0.000E+00  0.000E+00  1.07555E+03  1.909E+00  9.636E+00  7.227E-02  1.955E+00
   1    3    6     3     2    1.7175E+00  2.4905E-01   1.4684E+00  0.000E+00  0.000E+00  0.000E+00  1.07264E+03  1.727E+00  8.909E+00  6.682E-02  1.864E+00
   1    3    7     3     3    1.4684E+00  1.9718E-01   1.2712E+00  0.000E+00  0.000E+00  0.000E+00  1.06987E+03  1.555E+00  8.218E+00  5.547E-02  1.777E+00
   1    4    8     3     4    1.2712E+00  2.2567E-01   1.0456E+00  0.000E+00  0.000E+00  0.000E+00  1.06682E+03  1.364E+00  7.455E+00  6.709E-02  1.682E+00
   1    5    8     3     5    1.0456E+00  1.5790E-01   8.8768E-01  0.000E+00  0.000E+00  0.000E+00  1.06362E+03  1.164E+00  6.655E+00  4.991E-02  1.582E+00
   1    6    8     3     6    8.8768E-01  5.5980E-02   8.3170E-01  0.000E+00  0.000E+00  0.000E+00  1.06158E+03  1.036E+00  6.145E+00  1.844E-02  1.518E+00
   1    5   10     4     1    1.0000E+01  9.0919E-02   9.9091E+00  0.000E+00  0.000E+00  0.000E+00  1.07836E+03  6.368E-01  1.000E+01  2.500E-02  1.212E+00
   1    5    9     4     2    9.9091E+00  1.8158E-01   9.7275E+00  0.000E+00  0.000E+00  0.000E+00  1.07154E+03  6.315E-01  1.000E+01  5.000E-02  1.211E+00
   1    6    8     4     3    9.7275E+00  1.2689E-01   9.6006E+00  0.000E+00  0.000E+00  0.000E+00  1.06381E+03  6.256E-01  1.000E+01  3.500E-02  1.209E+00
   1    6    8     5     1    1.0432E+01  2.2686E-01   1.0205E+01  0.000E+00  0.000E+00  0.000E+00  1.05868E+03  6.790E-01  1.542E+01  6.166E-02  1.226E+00
   1    7    7     5     2    1.0205E+01  2.7894E-01   9.9265E+00  0.000E+00  0.000E+00  0.000E+00  1.05417E+03  6.732E-01  1.519E+01  7.594E-02  1.224E+00
   1    8    7     5     3    9.9265E+00  1.9221E-01   9.7343E+00  0.000E+00  0.000E+00  0.000E+00  1.04992E+03  6.676E-01  1.497E+01  5.241E-02  1.223E+00
   1    8    6     5     4    9.7343E+00  1.3577E-01   9.5985E+00  0.000E+00  0.000E+00  0.000E+00  1.04691E+03  6.637E-01  1.482E+01  3.706E-02  1.221E+00
   1    9    6     6     1    8.6641E+01  3.3426E-01   8.6306E+01  0.000E+00  0.000E+00  0.000E+00  1.04530E+03  2.571E+00  1.200E+01  6.000E-02  1.857E+00
   1   10    7     6     2    8.6306E+01  3.3390E-01   8.5973E+01  0.000E+00  0.000E+00  0.000E+00  1.04075E+03  2.565E+00  1.200E+01  6.000E-02  1.855E+00
   1   11    7     6     3    8.5973E+01  3.3354E-01   8.5639E+01  0.000E+00  0.000E+00  0.000E+00  1.03620E+03  2.559E+00  1.200E+01  6.000E-02  1.853E+00
   1   12    7     6     4    8.5639E+01  3.3319E-01   8.5306E+01  0.000E+00  0.000E+00  0.000E+00  1.03164E+03  2.553E+00  1.200E+01  6.000E-02  1.851E+00
   1   13    7     6     5    8.5306E+01  2.9666E-02   8.5276E+01  0.000E+00  0.000E+00  0.000E+00  1.02846E+03  2.550E+00  1.200E+01  2.400E-02  4.120E-01
   1   14    9     7     1    1.5000E+02  1.3319E+00   1.4867E+02  0.000E+00  0.000E+00  0.000E+00  1.03987E+03  2.288E+00  5.529E+01  5.593E-01  7.938E-01
   1   13    8     7     2    1.4867E+02  1.8047E+00   1.4686E+02  0.000E+00  0.000E+00  0.000E+00  1.03478E+03  2.279E+00  5.526E+01  6.148E-01  9.785E-01
   1   13    7     7     3    1.4686E+02  1.3780E+00   1.4549E+02  0.000E+00  0.000E+00  0.000E+00  1.02969E+03  2.271E+00  5.522E+01  5.585E-01  8.225E-01
   1   13    6     8     1    2.3076E+02  1.0561E+00   2.2971E+02  0.000E+00  0.000E+00  0.000E+00  1.02518E+03  3.308E+00  4.796E+01  4.888E-01  7.202E-01
   1   13    5     8     2    2.2971E+02  2.2210E-01   2.2948E+02  0.000E+00  0.000E+00  0.000E+00  1.01893E+03  3.304E+00  4.791E+01  4.883E-01  1.516E-01
   1   13    4     8     3    2.2948E+02 -1.9858E+00   2.3147E+02  0.000E+00  0.000E+00  0.000E+00  1.01268E+03  3.309E+00  4.798E+01  4.890E+00 -1.354E-01
   1   13    3     8     4    2.3147E+02 -3.1619E+00   2.3463E+02  0.000E+00  0.000E+00  0.000E+00  1.00645E+03  3.323E+00  4.818E+01  4.910E+00 -2.147E-01
   1   13    2     8     5    2.3463E+02 -2.5564E+00   2.3719E+02  0.000E+00  0.000E+00  0.000E+00  1.00021E+03  3.338E+00  4.840E+01  4.932E+00 -1.728E-01
   1   13    1     8     6    2.3719E+02 -1.9852E+00   2.3917E+02  0.000E+00  0.000E+00  0.000E+00  9.95225E+02  3.350E+00  4.858E+01  2.970E+00 -2.228E-01



 UBDSV3 SAVING "           GW ET" ON UNIT  61 AT TIME STEP 15, STRESS PERIOD   7
 UBDSV3 SAVING "    UZF RECHARGE" ON UNIT  61 AT TIME STEP 15, STRESS PERIOD   7
 UBDSV3 SAVING " SURFACE LEAKAGE" ON UNIT  61 AT TIME STEP 15, STRESS PERIOD   7
 UBDSV3 SAVING "       HORT+DUNN" ON UNIT  61 AT TIME STEP 15, STRESS PERIOD   7
 UBDSV3 SAVING "  STORAGE CHANGE" ON UNIT  61 AT TIME STEP 15, STRESS PERIOD   7


UNSATURATED ZONE PACKAGE VOLUMETRIC BUDGET FOR  TIME STEP    15 STRESS PERIOD    7
  ------------------------------------------------------------------------------



     CUMULATIVE VOLUMES      L**3       RATES FOR THIS TIME STEP      L**3/T
     ------------------                 ------------------------

           IN:                                      IN:
           ---                                      ---
        INFILTRATION =   119947528.4094          INFILTRATION =          26.5474

          OUT:                                     OUT:
          ----                                     ----
              UZF ET =   101337515.6741                UZF ET =          26.6075
        UZF RECHARGE =       73224.0000          UZF RECHARGE =       0.0000E+00

            IN - OUT =    18536788.7354              IN - OUT =      -6.0108E-02

          STORAGE:                                 STORAGE:
          --------                                 --------
      STORAGE CHANGE =    18536787.4469        STORAGE CHANGE =      -6.0109E-02

 PERCENT DISCREPANCY IS DIFFERENCE BETWEEN IN-OUT MINUS CHANGE IN STORAGE
 DIVIDED BY THE AVERAGE OF IN AND OUT TIMES 100

 PERCENT DISCREPANCY =           0.00     PERCENT DISCREPANCY =           0.00






 

            AG WELLS      PERIOD    7   STEP  15
 AG WELL      1   LAYER   1   ROW     6   COL     4   RATE    -3.71741    
 AG WELL      2   LAYER   1   ROW     6   COL     5   RATE    -3.70166    
 AG WELL      3   LAYER   1   ROW     7   COL     4   RATE    -3.71475    
 AG WELL      4   LAYER   1   ROW     7   COL     5   RATE    -3.68522    
 AG WELL      5   LAYER   1   ROW     8   COL     4   RATE    -3.71475    
 AG WELL      6   LAYER   1   ROW     8   COL     5   RATE    -3.60610    
 
 

        GW IRRIGATION     PERIOD    7   STEP  15
 AG WELL      1   ROW     6   COL     4   RATE     3.71741    
 AG WELL      2   ROW     6   COL     5   RATE     3.70166    
 AG WELL      3   ROW     7   COL     4   RATE     3.71475    
 AG WELL      4   ROW     7   COL     5   RATE     3.68522    
 AG WELL      5   ROW     8   COL     4   RATE     3.71475    
 AG WELL      6   ROW     8   COL     5   RATE     3.60610    
 
1
  VOLUMETRIC BUDGET FOR AGRICULTURAL FIELDS AT TIME STEP   15, STRESS PERIOD   7
  ------------------------------------------------------------------------------

     CUMULATIVE VOLUMES      L**3       RATES FOR THIS TIME STEP      L**3/T
     ------------------                 ------------------------

           IN:                                      IN:
           ---                                      ---
               AG WELLS  =    56119812.0000                 AG WELLS  =          22.1399
      DIVERSION SEGMENTS =           0.0000        DIVERSION SEGMENTS =           0.0000
           GW IRRIGATION =           0.0000             GW IRRIGATION =           0.0000
           SW IRRIGATION =           0.0000             SW IRRIGATION =           0.0000
        SYSTEM LOSSES GW =           0.0000          SYSTEM LOSSES GW =           0.0000
        SYSTEM LOSSES SW =           0.0000          SYSTEM LOSSES SW =           0.0000

                TOTAL IN =    56119812.0000                  TOTAL IN =          22.1399

          OUT:                                     OUT:
          ----                                     ----
               AG WELLS  =           0.0000                 AG WELLS  =           0.0000
      DIVERSION SEGMENTS =           0.0000        DIVERSION SEGMENTS =           0.0000
           GW IRRIGATION =    56119812.0000             GW IRRIGATION =          22.1399
           SW IRRIGATION =           0.0000             SW IRRIGATION =           0.0000
        SYSTEM LOSSES GW =           0.0000          SYSTEM LOSSES GW =           0.0000
        SYSTEM LOSSES SW =           0.0000          SYSTEM LOSSES SW =           0.0000

               TOTAL OUT =    56119812.0000                 TOTAL OUT =          22.1399

                IN - OUT =           0.0000                  IN - OUT =           0.0000

     PERCENT DISCREPANCY =           0.00         PERCENT DISCREPANCY =           0.00



1
  VOLUMETRIC BUDGET FOR ENTIRE MODEL AT END OF TIME STEP   15, STRESS PERIOD   7
  ------------------------------------------------------------------------------

     CUMULATIVE VOLUMES      L**3       RATES FOR THIS TIME STEP      L**3/T
     ------------------                 ------------------------

           IN:                                      IN:
           ---                                      ---
             STORAGE     =    63225236.0000               STORAGE     =          21.5774
       CONSTANT HEAD     =           0.0000         CONSTANT HEAD     =           0.0000
     HEAD DEP BOUNDS     =     4153689.5000       HEAD DEP BOUNDS     =           0.2855
      STREAM LEAKAGE     =   184453520.0000        STREAM LEAKAGE     =          13.5169
        UZF RECHARGE     =       73223.9531          UZF RECHARGE     =           0.0000
               GW ET     =           0.0000                 GW ET     =           0.0000
     SURFACE LEAKAGE     =           0.0000       SURFACE LEAKAGE     =           0.0000
           AG WELLS      =           0.0000             AG WELLS      =           0.0000

                TOTAL IN =   251905664.0000                  TOTAL IN =          35.3798

          OUT:                                     OUT:
          ----                                     ----
             STORAGE     =    39684780.0000               STORAGE     =           1.9039
       CONSTANT HEAD     =           0.0000         CONSTANT HEAD     =           0.0000
     HEAD DEP BOUNDS     =     4279829.0000       HEAD DEP BOUNDS     =           0.3000
      STREAM LEAKAGE     =   147777344.0000        STREAM LEAKAGE     =           9.6894
        UZF RECHARGE     =           0.0000          UZF RECHARGE     =           0.0000
               GW ET     =     4046582.7500                 GW ET     =           1.3467
     SURFACE LEAKAGE     =           0.0000       SURFACE LEAKAGE     =           0.0000
           AG WELLS      =    56119812.0000             AG WELLS      =          22.1399

               TOTAL OUT =   251908336.0000                 TOTAL OUT =          35.3798

                IN - OUT =       -2672.0000                  IN - OUT =      -6.8665E-05

     PERCENT DISCREPANCY =          -0.00         PERCENT DISCREPANCY =          -0.00






         TIME SUMMARY AT END OF TIME STEP   15 IN STRESS PERIOD    7
                    SECONDS     MINUTES      HOURS       DAYS        YEARS
                    -----------------------------------------------------------
   TIME STEP LENGTH  87667.      1461.1      24.352      1.0147     2.77799E-03
 STRESS PERIOD TIME 1.31500E+06  21917.      365.28      15.220     4.16698E-02
         TOTAL TIME 1.45514E+07 2.42524E+05  4042.1      168.42     0.46111    
1
 
 SOLVING FOR HEAD 
                                                   Max.-Head-Change                         Max.-Flux-Residual
  Residual-Control   Outer-Iter.   Inner-Iter.     Column Row Layer    Maximum-Head-Change  Column Row Layer    Maximum-Flux-Residual          L2-NORM 
          0                 1           2             4    7     1      -0.5560728957E-01       4    7    1        -0.2917076772E+01      0.6374604680E+01
          0                 2           2             4    7     1       0.5409016385E-02       4    7    1         0.2917039841E+00      0.6374516451E+00
          0                 3           2             4    7     1      -0.3683387939E-03       4    7    1        -0.2041955883E-01      0.4462193963E-01
          0                 4           1             4    7     1       0.1465233897E-04       4    7    1         0.8349225322E-03      0.1824463378E-02

    ------------------------------------------------
       NWT REQUIRED            4 OUTER ITERATIONS 
       AND A TOTAL OF          7 INNER ITERATIONS.
    ------------------------------------------------

 NO OUTPUT CONTROL FOR STRESS PERIOD    7   TIME STEP   16
 
 SOLVING FOR HEAD 
                                                   Max.-Head-Change                         Max.-Flux-Residual
  Residual-Control   Outer-Iter.   Inner-Iter.     Column Row Layer    Maximum-Head-Change  Column Row Layer    Maximum-Flux-Residual          L2-NORM 
          0                 1           2             4    7     1      -0.5507481904E-01       4    7    1        -0.2889434323E+01      0.6307929446E+01
          0                 2           2             4    7     1       0.5357221759E-02       4    7    1         0.2889397524E+00      0.6307849259E+00
          0                 3           2             4    7     1      -0.3648117695E-03       4    7    1        -0.2022606238E-01      0.4415533260E-01
          0                 4           1             4    7     1       0.1451199567E-04       4    7    1         0.8270085364E-03      0.1805384625E-02

    ------------------------------------------------
       NWT REQUIRED            4 OUTER ITERATIONS 
       AND A TOTAL OF          7 INNER ITERATIONS.
    ------------------------------------------------

 NO OUTPUT CONTROL FOR STRESS PERIOD    7   TIME STEP   17
 
 SOLVING FOR HEAD 
                                                   Max.-Head-Change                         Max.-Flux-Residual
  Residual-Control   Outer-Iter.   Inner-Iter.     Column Row Layer    Maximum-Head-Change  Column Row Layer    Maximum-Flux-Residual          L2-NORM 
          0                 1           2             4    7     1      -0.5454220167E-01       4    7    1        -0.2861749332E+01      0.6243351234E+01
          0                 2           2             4    7     1       0.5305412923E-02       4    7    1         0.2861712716E+00      0.6243279236E+00
          0                 3           2             4    7     1      -0.3612837769E-03       4    7    1        -0.2003226849E-01      0.4370339707E-01
          0                 4           1             4    7     1       0.1437161367E-04       4    7    1         0.8190823389E-03      0.1786912162E-02

    ------------------------------------------------
       NWT REQUIRED            4 OUTER ITERATIONS 
       AND A TOTAL OF          7 INNER ITERATIONS.
    ------------------------------------------------

 NO OUTPUT CONTROL FOR STRESS PERIOD    7   TIME STEP   18
 
 SOLVING FOR HEAD 
                                                   Max.-Head-Change                         Max.-Flux-Residual
  Residual-Control   Outer-Iter.   Inner-Iter.     Column Row Layer    Maximum-Head-Change  Column Row Layer    Maximum-Flux-Residual          L2-NORM 
          0                 1           2             4    7     1      -0.5401031523E-01       4    7    1        -0.2834071284E+01      0.6180735330E+01
          0                 2           2             4    7     1       0.5253675250E-02       4    7    1         0.2834034896E+00      0.6180669348E+00
          0                 3           2             4    7     1      -0.3577606294E-03       4    7    1        -0.1983852342E-01      0.4326515889E-01
          0                 4           1             4    7     1       0.1423142464E-04       4    7    1         0.8111581815E-03      0.1768990654E-02

    ------------------------------------------------
       NWT REQUIRED            4 OUTER ITERATIONS 
       AND A TOTAL OF          7 INNER ITERATIONS.
    ------------------------------------------------

 NO OUTPUT CONTROL FOR STRESS PERIOD    7   TIME STEP   19
 
 SOLVING FOR HEAD 
                                                   Max.-Head-Change                         Max.-Flux-Residual
  Residual-Control   Outer-Iter.   Inner-Iter.     Column Row Layer    Maximum-Head-Change  Column Row Layer    Maximum-Flux-Residual          L2-NORM 
          0                 1           2             4    7     1      -0.5347971876E-01       4    7    1        -0.2806431390E+01      0.6119992812E+01
          0                 2           2             4    7     1       0.5202063113E-02       4    7    1         0.2806395270E+00      0.6119931998E+00
          0                 3           2             4    7     1      -0.3542460297E-03       4    7    1        -0.1964504570E-01      0.4284003122E-01
          0                 4           1             4    7     1       0.1409157500E-04       4    7    1         0.8032449136E-03      0.1751596185E-02

    ------------------------------------------------
       NWT REQUIRED            4 OUTER ITERATIONS 
       AND A TOTAL OF          7 INNER ITERATIONS.
    ------------------------------------------------

 NO OUTPUT CONTROL FOR STRESS PERIOD    7   TIME STEP   20
 
 SOLVING FOR HEAD 
                                                   Max.-Head-Change                         Max.-Flux-Residual
  Residual-Control   Outer-Iter.   Inner-Iter.     Column Row Layer    Maximum-Head-Change  Column Row Layer    Maximum-Flux-Residual          L2-NORM 
          0                 1           2             4    7     1      -0.5295093169E-01       4    7    1        -0.2778858397E+01      0.6061036073E+01
          0                 2           2             4    7     1       0.5150627032E-02       4    7    1         0.2778822581E+00      0.6060979240E+00
          0                 3           2             4    7     1      -0.3507434189E-03       4    7    1        -0.1945203652E-01      0.4242739688E-01
          0                 4           1             4    7     1       0.1395220268E-04       4    7    1         0.7953508289E-03      0.1734730926E-02

    ------------------------------------------------
       NWT REQUIRED            4 OUTER ITERATIONS 
       AND A TOTAL OF          7 INNER ITERATIONS.
    ------------------------------------------------

 NO OUTPUT CONTROL FOR STRESS PERIOD    7   TIME STEP   21
 
 SOLVING FOR HEAD 
                                                   Max.-Head-Change                         Max.-Flux-Residual
  Residual-Control   Outer-Iter.   Inner-Iter.     Column Row Layer    Maximum-Head-Change  Column Row Layer    Maximum-Flux-Residual          L2-NORM 
          0                 1           2             4    7     1      -0.5242467869E-01       4    7    1        -0.2751394008E+01      0.6003754496E+01
          0                 2           2             4    7     1       0.5099437491E-02       4    7    1         0.2751358526E+00      0.6003700523E+00
          0                 3           2             4    7     1      -0.3472575960E-03       4    7    1        -0.1925978774E-01      0.4202646212E-01
          0                 4           1             4    7     1       0.1381349924E-04       4    7    1         0.7874878618E-03      0.1718337268E-02

    ------------------------------------------------
       NWT REQUIRED            4 OUTER ITERATIONS 
       AND A TOTAL OF          7 INNER ITERATIONS.
    ------------------------------------------------

 NO OUTPUT CONTROL FOR STRESS PERIOD    7   TIME STEP   22
 
 SOLVING FOR HEAD 
                                                   Max.-Head-Change                         Max.-Flux-Residual
  Residual-Control   Outer-Iter.   Inner-Iter.     Column Row Layer    Maximum-Head-Change  Column Row Layer    Maximum-Flux-Residual          L2-NORM 
          0                 1           2             4    7     1      -0.5190084220E-01       4    7    1        -0.2724031724E+01      0.5948081811E+01
          0                 2           2             4    7     1       0.5048483049E-02       4    7    1         0.2723996604E+00      0.5948031056E+00
          0                 3           2             4    7     1      -0.3437877819E-03       4    7    1        -0.1906825386E-01      0.4163677995E-01
          0                 4           1             4    7     1       0.1367543178E-04       4    7    1         0.7796541158E-03      0.1702400242E-02

    ------------------------------------------------
       NWT REQUIRED            4 OUTER ITERATIONS 
       AND A TOTAL OF          7 INNER ITERATIONS.
    ------------------------------------------------

 NO OUTPUT CONTROL FOR STRESS PERIOD    7   TIME STEP   23
 
 SOLVING FOR HEAD 
                                                   Max.-Head-Change                         Max.-Flux-Residual
  Residual-Control   Outer-Iter.   Inner-Iter.     Column Row Layer    Maximum-Head-Change  Column Row Layer    Maximum-Flux-Residual          L2-NORM 
          0                 1           2             4    7     1      -0.5138035665E-01       4    7    1        -0.2696824289E+01      0.5893943252E+01
          0                 2           2             4    7     1       0.4997854596E-02       4    7    1         0.2696789554E+00      0.5893894620E+00
          0                 3           2             4    7     1      -0.3403401657E-03       4    7    1        -0.1887780405E-01      0.4125783045E-01
          0                 4           1             4    7     1       0.1353824803E-04       4    7    1         0.7718646998E-03      0.1686900405E-02

    ------------------------------------------------
       NWT REQUIRED            4 OUTER ITERATIONS 
       AND A TOTAL OF          7 INNER ITERATIONS.
    ------------------------------------------------

 NO OUTPUT CONTROL FOR STRESS PERIOD    7   TIME STEP   24
 
 SOLVING FOR HEAD 
                                                   Max.-Head-Change                         Max.-Flux-Residual
  Residual-Control   Outer-Iter.   Inner-Iter.     Column Row Layer    Maximum-Head-Change  Column Row Layer    Maximum-Flux-Residual          L2-NORM 
          0                 1           2             4    7     1      -0.5086301870E-01       4    7    1        -0.2669761081E+01      0.5841256229E+01
          0                 2           2             4    7     1       0.4947532349E-02       4    7    1         0.2669726755E+00      0.5841209679E+00
          0                 3           2             4    7     1      -0.3369134013E-03       4    7    1        -0.1868836400E-01      0.4088903702E-01
          0                 4           1             4    7     1       0.1340189367E-04       4    7    1         0.7641165846E-03      0.1671819266E-02

    ------------------------------------------------
       NWT REQUIRED            4 OUTER ITERATIONS 
       AND A TOTAL OF          7 INNER ITERATIONS.
    ------------------------------------------------

 NO OUTPUT CONTROL FOR STRESS PERIOD    7   TIME STEP   25
 
 SOLVING FOR HEAD 
                                                   Max.-Head-Change                         Max.-Flux-Residual
  Residual-Control   Outer-Iter.   Inner-Iter.     Column Row Layer    Maximum-Head-Change  Column Row Layer    Maximum-Flux-Residual          L2-NORM 
          0                 1           2             4    7     1      -0.5034969461E-01       4    7    1        -0.2642890623E+01      0.5789960273E+01
          0                 2           2             4    7     1       0.4897600584E-02       4    7    1         0.2642856721E+00      0.5789907988E+00
          0                 3           2             4    7     1      -0.3335132237E-03       4    7    1        -0.1850027328E-01      0.4052992454E-01
          0                 4           1             4    7     1       0.1326659755E-04       4    7    1         0.7564236810E-03      0.1657134874E-02

    ------------------------------------------------
       NWT REQUIRED            4 OUTER ITERATIONS 
       AND A TOTAL OF          7 INNER ITERATIONS.
    ------------------------------------------------

 NO OUTPUT CONTROL FOR STRESS PERIOD    7   TIME STEP   26
 
 SOLVING FOR HEAD 
                                                   Max.-Head-Change                         Max.-Flux-Residual
  Residual-Control   Outer-Iter.   Inner-Iter.     Column Row Layer    Maximum-Head-Change  Column Row Layer    Maximum-Flux-Residual          L2-NORM 
          0                 1           2             4    7     1      -0.4984038728E-01       4    7    1        -0.2616213770E+01      0.5740002888E+01
          0                 2           2             4    7     1       0.4848059852E-02       4    7    1         0.2616180307E+00      0.5739963774E+00
          0                 3           2             4    7     1      -0.3301396772E-03       4    7    1        -0.1831353789E-01      0.4018032197E-01
          0                 4           1             4    7     1       0.1313236107E-04       4    7    1         0.7487861881E-03      0.1642840686E-02

    ------------------------------------------------
       NWT REQUIRED            4 OUTER ITERATIONS 
       AND A TOTAL OF          7 INNER ITERATIONS.
    ------------------------------------------------

 NO OUTPUT CONTROL FOR STRESS PERIOD    7   TIME STEP   27
 
 SOLVING FOR HEAD 
                                                   Max.-Head-Change                         Max.-Flux-Residual
  Residual-Control   Outer-Iter.   Inner-Iter.     Column Row Layer    Maximum-Head-Change  Column Row Layer    Maximum-Flux-Residual          L2-NORM 
          0                 1           2             4    7     1      -0.4933535206E-01       4    7    1        -0.2589745185E+01      0.5691313706E+01
          0                 2           2             4    7     1       0.4798934374E-02       4    7    1         0.2589712175E+00      0.5691275768E+00
          0                 3           2             4    7     1      -0.3267944071E-03       4    7    1        -0.1812826044E-01      0.3983950491E-01
          0                 4           1             4    7     1       0.1299924939E-04       4    7    1         0.7412083253E-03      0.1628901725E-02

    ------------------------------------------------
       NWT REQUIRED            4 OUTER ITERATIONS 
       AND A TOTAL OF          7 INNER ITERATIONS.
    ------------------------------------------------

 NO OUTPUT CONTROL FOR STRESS PERIOD    7   TIME STEP   28
 
 SOLVING FOR HEAD 
                                                   Max.-Head-Change                         Max.-Flux-Residual
  Residual-Control   Outer-Iter.   Inner-Iter.     Column Row Layer    Maximum-Head-Change  Column Row Layer    Maximum-Flux-Residual          L2-NORM 
          0                 1           2             4    7     1      -0.4883494496E-01       4    7    1        -0.2563505282E+01      0.5643857136E+01
          0                 2           2             4    7     1       0.4750261676E-02       4    7    1         0.2563472735E+00      0.5644739778E+00
          0                 3           2             4    7     1      -0.3234799704E-03       4    7    1        -0.1794458386E-01      0.3951375116E-01
          0                 4           1             4    7     1       0.1286736554E-04       4    7    1         0.7336959673E-03      0.1615578283E-02

    ------------------------------------------------
       NWT REQUIRED            4 OUTER ITERATIONS 
       AND A TOTAL OF          7 INNER ITERATIONS.
    ------------------------------------------------

 NO OUTPUT CONTROL FOR STRESS PERIOD    7   TIME STEP   29
 
 SOLVING FOR HEAD 
                                                   Max.-Head-Change                         Max.-Flux-Residual
  Residual-Control   Outer-Iter.   Inner-Iter.     Column Row Layer    Maximum-Head-Change  Column Row Layer    Maximum-Flux-Residual          L2-NORM 
          0                 1           2             4    7     1      -0.4833938628E-01       4    7    1        -0.2537505700E+01      0.5603612145E+01
          0                 2           2             4    7     1       0.4702055463E-02       4    7    1         0.2537473624E+00      0.5603299457E+00
          0                 3           2             4    7     1      -0.3201972987E-03       4    7    1        -0.1776258954E-01      0.3922111479E-01
          0                 4           1             4    7     1       0.1273674442E-04       4    7    1         0.7262523798E-03      0.1603469577E-02

    ------------------------------------------------
       NWT REQUIRED            4 OUTER ITERATIONS 
       AND A TOTAL OF          7 INNER ITERATIONS.
    ------------------------------------------------

 NO OUTPUT CONTROL FOR STRESS PERIOD    7   TIME STEP   30



 STREAM LISTING     PERIOD      7   STEP       30

 LAYER ROW COL. STREAM  RCH.  FLOW INTO     FLOW TO   FLOW OUT OF   OVRLND.     DIRECT     STREAM       STREAM     STREAM     STREAM   STREAMBED  STREAMBED
                SEG.NO.  NO.  STRM. RCH.    AQUIFER    STRM. RCH.    RUNOFF     PRECIP       ET          HEAD       DEPTH      WIDTH   CONDCTNC.   GRADIENT

   1    1    1     1     1    7.6939E+01  4.2690E-01   7.6512E+01  0.000E+00  0.000E+00  0.000E+00  1.09476E+03  1.708E+00  2.015E+01  9.068E-02  1.569E+00
   1    2    2     1     2    7.6512E+01  6.6216E-01   7.5850E+01  0.000E+00  0.000E+00  0.000E+00  1.08976E+03  1.705E+00  2.010E+01  1.407E-01  1.568E+00
   1    3    3     1     3    7.5850E+01  5.6572E-01   7.5284E+01  0.000E+00  0.000E+00  0.000E+00  1.08412E+03  1.703E+00  2.005E+01  1.203E-01  1.568E+00
   1    3    4     1     4    7.5284E+01  5.2177E-01   7.4762E+01  0.000E+00  0.000E+00  0.000E+00  1.07911E+03  1.700E+00  2.000E+01  1.110E-01  1.567E+00
   1    4    5     2     1    7.2762E+01  4.1250E-01   7.2350E+01  0.000E+00  0.000E+00  0.000E+00  1.07422E+03  2.288E+00  1.200E+01  7.800E-02  1.763E+00
   1    5    6     2     2    7.2350E+01  3.1689E-01   7.2033E+01  0.000E+00  0.000E+00  0.000E+00  1.06879E+03  2.282E+00  1.200E+01  6.000E-02  1.761E+00
   1    6    6     2     3    7.2033E+01  3.1653E-01   7.1717E+01  0.000E+00  0.000E+00  0.000E+00  1.06407E+03  2.276E+00  1.200E+01  6.000E-02  1.759E+00
   1    7    6     2     4    7.1717E+01  3.1617E-01   7.1400E+01  0.000E+00  0.000E+00  0.000E+00  1.05934E+03  2.270E+00  1.200E+01  6.000E-02  1.757E+00
   1    8    6     2     5    7.1400E+01  3.1581E-01   7.1085E+01  0.000E+00  0.000E+00  0.000E+00  1.05462E+03  2.264E+00  1.200E+01  6.000E-02  1.755E+00
   1    3    5     3     1    2.0000E+00  2.8252E-01   1.7175E+00  0.000E+00  0.000E+00  0.000E+00  1.07555E+03  1.909E+00  9.636E+00  7.227E-02  1.955E+00
   1    3    6     3     2    1.7175E+00  2.4905E-01   1.4684E+00  0.000E+00  0.000E+00  0.000E+00  1.07264E+03  1.727E+00  8.909E+00  6.682E-02  1.864E+00
   1    3    7     3     3    1.4684E+00  1.9718E-01   1.2712E+00  0.000E+00  0.000E+00  0.000E+00  1.06987E+03  1.555E+00  8.218E+00  5.547E-02  1.777E+00
   1    4    8     3     4    1.2712E+00  2.2567E-01   1.0456E+00  0.000E+00  0.000E+00  0.000E+00  1.06682E+03  1.364E+00  7.455E+00  6.709E-02  1.682E+00
   1    5    8     3     5    1.0456E+00  1.5790E-01   8.8768E-01  0.000E+00  0.000E+00  0.000E+00  1.06362E+03  1.164E+00  6.655E+00  4.991E-02  1.582E+00
   1    6    8     3     6    8.8768E-01  5.5980E-02   8.3170E-01  0.000E+00  0.000E+00  0.000E+00  1.06158E+03  1.036E+00  6.145E+00  1.844E-02  1.518E+00
   1    5   10     4     1    1.0000E+01  9.0919E-02   9.9091E+00  0.000E+00  0.000E+00  0.000E+00  1.07836E+03  6.368E-01  1.000E+01  2.500E-02  1.212E+00
   1    5    9     4     2    9.9091E+00  1.8158E-01   9.7275E+00  0.000E+00  0.000E+00  0.000E+00  1.07154E+03  6.315E-01  1.000E+01  5.000E-02  1.211E+00
   1    6    8     4     3    9.7275E+00  1.2689E-01   9.6006E+00  0.000E+00  0.000E+00  0.000E+00  1.06381E+03  6.256E-01  1.000E+01  3.500E-02  1.209E+00
   1    6    8     5     1    1.0432E+01  2.2686E-01   1.0205E+01  0.000E+00  0.000E+00  0.000E+00  1.05868E+03  6.790E-01  1.542E+01  6.166E-02  1.226E+00
   1    7    7     5     2    1.0205E+01  2.7894E-01   9.9265E+00  0.000E+00  0.000E+00  0.000E+00  1.05417E+03  6.732E-01  1.519E+01  7.594E-02  1.224E+00
   1    8    7     5     3    9.9265E+00  1.9221E-01   9.7343E+00  0.000E+00  0.000E+00  0.000E+00  1.04992E+03  6.676E-01  1.497E+01  5.241E-02  1.223E+00
   1    8    6     5     4    9.7343E+00  1.3577E-01   9.5985E+00  0.000E+00  0.000E+00  0.000E+00  1.04691E+03  6.637E-01  1.482E+01  3.706E-02  1.221E+00
   1    9    6     6     1    8.0683E+01  3.2780E-01   8.0355E+01  0.000E+00  0.000E+00  0.000E+00  1.04519E+03  2.463E+00  1.200E+01  6.000E-02  1.821E+00
   1   10    7     6     2    8.0355E+01  3.2743E-01   8.0028E+01  0.000E+00  0.000E+00  0.000E+00  1.04064E+03  2.457E+00  1.200E+01  6.000E-02  1.819E+00
   1   11    7     6     3    8.0028E+01  3.2707E-01   7.9701E+01  0.000E+00  0.000E+00  0.000E+00  1.03609E+03  2.451E+00  1.200E+01  6.000E-02  1.817E+00
   1   12    7     6     4    7.9701E+01  3.2671E-01   7.9374E+01  0.000E+00  0.000E+00  0.000E+00  1.03154E+03  2.445E+00  1.200E+01  6.000E-02  1.815E+00
   1   13    7     6     5    7.9374E+01  2.6849E-02   7.9347E+01  0.000E+00  0.000E+00  0.000E+00  1.02835E+03  2.442E+00  1.200E+01  2.400E-02  3.729E-01
   1   14    9     7     1    1.5000E+02  1.3318E+00   1.4867E+02  0.000E+00  0.000E+00  0.000E+00  1.03987E+03  2.288E+00  5.529E+01  5.593E-01  7.937E-01
   1   13    8     7     2    1.4867E+02  1.8024E+00   1.4687E+02  0.000E+00  0.000E+00  0.000E+00  1.03478E+03  2.279E+00  5.526E+01  6.148E-01  9.772E-01
   1   13    7     7     3    1.4687E+02  1.3727E+00   1.4549E+02  0.000E+00  0.000E+00  0.000E+00  1.02969E+03  2.271E+00  5.522E+01  5.585E-01  8.193E-01
   1   13    6     8     1    2.2484E+02  1.0255E+00   2.2381E+02  0.000E+00  0.000E+00  0.000E+00  1.02515E+03  3.276E+00  4.750E+01  4.840E-01  7.062E-01
   1   13    5     8     2    2.2381E+02  2.0269E-01   2.2361E+02  0.000E+00  0.000E+00  0.000E+00  1.01890E+03  3.272E+00  4.745E+01  4.835E-01  1.397E-01
   1   13    4     8     3    2.2361E+02 -2.0973E+00   2.2571E+02  0.000E+00  0.000E+00  0.000E+00  1.01265E+03  3.278E+00  4.752E+01  4.843E+00 -1.444E-01
   1   13    3     8     4    2.2571E+02 -3.2558E+00   2.2897E+02  0.000E+00  0.000E+00  0.000E+00  1.00642E+03  3.292E+00  4.774E+01  4.864E+00 -2.231E-01
   1   13    2     8     5    2.2897E+02 -2.6242E+00   2.3159E+02  0.000E+00  0.000E+00  0.000E+00  1.00018E+03  3.308E+00  4.797E+01  4.888E+00 -1.790E-01
   1   13    1     8     6    2.3159E+02 -2.0373E+00   2.3363E+02  0.000E+00  0.000E+00  0.000E+00  9.95196E+02  3.321E+00  4.815E+01  2.944E+00 -2.307E-01





UNSATURATED ZONE PACKAGE VOLUMETRIC BUDGET FOR  TIME STEP    30 STRESS PERIOD    7
  ------------------------------------------------------------------------------



     CUMULATIVE VOLUMES      L**3       RATES FOR THIS TIME STEP      L**3/T
     ------------------                 ------------------------

           IN:                                      IN:
           ---                                      ---
        INFILTRATION =   154876469.3557          INFILTRATION =          26.5718

          OUT:                                     OUT:
          ----                                     ----
              UZF ET =   136326377.9641                UZF ET =          26.6075
        UZF RECHARGE =       73224.0000          UZF RECHARGE =       0.0000E+00

            IN - OUT =    18476867.3916              IN - OUT =      -3.5697E-02

          STORAGE:                                 STORAGE:
          --------                                 --------
      STORAGE CHANGE =    18476865.8956        STORAGE CHANGE =      -3.5698E-02

 PERCENT DISCREPANCY IS DIFFERENCE BETWEEN IN-OUT MINUS CHANGE IN STORAGE
 DIVIDED BY THE AVERAGE OF IN AND OUT TIMES 100

 PERCENT DISCREPANCY =           0.00     PERCENT DISCREPANCY =           0.00






1
  VOLUMETRIC BUDGET FOR AGRICULTURAL FIELDS AT TIME STEP   30, STRESS PERIOD   7
  ------------------------------------------------------------------------------

     CUMULATIVE VOLUMES      L**3       RATES FOR THIS TIME STEP      L**3/T
     ------------------                 ------------------------

           IN:                                      IN:
           ---                                      ---
               AG WELLS  =    85252896.0000                 AG WELLS  =          22.1643
      DIVERSION SEGMENTS =           0.0000        DIVERSION SEGMENTS =           0.0000
           GW IRRIGATION =           0.0000             GW IRRIGATION =           0.0000
           SW IRRIGATION =           0.0000             SW IRRIGATION =           0.0000
        SYSTEM LOSSES GW =           0.0000          SYSTEM LOSSES GW =           0.0000
        SYSTEM LOSSES SW =           0.0000          SYSTEM LOSSES SW =           0.0000

                TOTAL IN =    85252896.0000                  TOTAL IN =          22.1643

          OUT:                                     OUT:
          ----                                     ----
               AG WELLS  =           0.0000                 AG WELLS  =           0.0000
      DIVERSION SEGMENTS =           0.0000        DIVERSION SEGMENTS =           0.0000
           GW IRRIGATION =    85252896.0000             GW IRRIGATION =          22.1643
           SW IRRIGATION =           0.0000             SW IRRIGATION =           0.0000
        SYSTEM LOSSES GW =           0.0000          SYSTEM LOSSES GW =           0.0000
        SYSTEM LOSSES SW =           0.0000          SYSTEM LOSSES SW =           0.0000

               TOTAL OUT =    85252896.0000                 TOTAL OUT =          22.1643

                IN - OUT =           0.0000                  IN - OUT =           0.0000

     PERCENT DISCREPANCY =           0.00         PERCENT DISCREPANCY =           0.00



1
  VOLUMETRIC BUDGET FOR ENTIRE MODEL AT END OF TIME STEP   30, STRESS PERIOD   7
  ------------------------------------------------------------------------------

     CUMULATIVE VOLUMES      L**3       RATES FOR THIS TIME STEP      L**3/T
     ------------------                 ------------------------

           IN:                                      IN:
           ---                                      ---
             STORAGE     =    91410296.0000               STORAGE     =          21.7306
       CONSTANT HEAD     =           0.0000         CONSTANT HEAD     =           0.0000
     HEAD DEP BOUNDS     =     4529104.5000       HEAD DEP BOUNDS     =           0.2855
      STREAM LEAKAGE     =   202202272.0000        STREAM LEAKAGE     =          13.3269
        UZF RECHARGE     =       73223.9531          UZF RECHARGE     =           0.0000
               GW ET     =           0.0000                 GW ET     =           0.0000
     SURFACE LEAKAGE     =           0.0000       SURFACE LEAKAGE     =           0.0000
           AG WELLS      =           0.0000             AG WELLS      =           0.0000

                TOTAL IN =   298214880.0000                  TOTAL IN =          35.3430

          OUT:                                     OUT:
          ----                                     ----
             STORAGE     =    42049952.0000               STORAGE     =           1.5922
       CONSTANT HEAD     =           0.0000         CONSTANT HEAD     =           0.0000
     HEAD DEP BOUNDS     =     4674125.0000       HEAD DEP BOUNDS     =           0.2997
      STREAM LEAKAGE     =   160474016.0000        STREAM LEAKAGE     =          10.0147
        UZF RECHARGE     =           0.0000          UZF RECHARGE     =           0.0000
               GW ET     =     5766686.0000                 GW ET     =           1.2721
     SURFACE LEAKAGE     =           0.0000       SURFACE LEAKAGE     =           0.0000
           AG WELLS      =    85252896.0000             AG WELLS      =          22.1643

               TOTAL OUT =   298217664.0000                 TOTAL OUT =          35.3430

                IN - OUT =       -2784.0000                  IN - OUT =      -6.8665E-05

     PERCENT DISCREPANCY =          -0.00         PERCENT DISCREPANCY =          -0.00






         TIME SUMMARY AT END OF TIME STEP   30 IN STRESS PERIOD    7
                    SECONDS     MINUTES      HOURS       DAYS        YEARS
                    -----------------------------------------------------------
   TIME STEP LENGTH  87667.      1461.1      24.352      1.0147     2.77799E-03
 STRESS PERIOD TIME 2.63000E+06  43833.      730.56      30.440     8.33397E-02
         TOTAL TIME 1.58664E+07 2.64440E+05  4407.3      183.64     0.50278    
1
1
                            STRESS PERIOD NO.    8, LENGTH =   2630000.    
                            -----------------------------------------------

                              NUMBER OF TIME STEPS =    30

                               MULTIPLIER FOR DELT =     1.000

                            INITIAL TIME STEP SIZE =   87666.66    

 REUSING NON-PARAMETER GHB CELLS FROM LAST STRESS PERIOD

      2 GHB CELLS

 REUSING STREAM SEGMENT DATA FROM LAST STRESS PERIOD



            AREAL INFILTRATION RATE
 READING ON UNIT   19 WITH FORMAT: (10F4.0)            

            1           2           3           4           5           6           7           8           9          10
 ........................................................................................................................
   1   1.2000E-09   0.000       0.000       0.000       0.000       0.000       0.000       0.000       0.000       0.000    
   2   2.1000E-09  2.0000E-09  8.0000E-10  8.5000E-09   0.000       0.000       0.000       0.000       0.000       0.000    
   3   5.0000E-10  1.1000E-09  8.8000E-09  5.5000E-09   0.000       0.000       0.000       0.000       0.000       0.000    
   4   8.5000E-09  1.1000E-09  1.1000E-09  1.1000E-09  2.0000E-09   0.000       0.000       0.000       0.000       0.000    
   5   8.5000E-09  1.1000E-09  1.1000E-09  1.1000E-09  1.1000E-09   0.000       0.000       0.000       0.000       0.000    
   6   8.5000E-09  5.2000E-09  2.1000E-09  1.1000E-09  1.5000E-09   0.000       0.000       0.000       0.000       0.000    
   7   8.5000E-09  5.2000E-09  2.1000E-09  1.2000E-09  2.0000E-09   0.000       0.000       0.000       0.000       0.000    
   8   5.0000E-10  5.2000E-09  2.1000E-09  1.2000E-09  5.0000E-09   0.000       0.000       0.000       0.000       0.000    
   9   5.0000E-10  5.2000E-09  2.1000E-09  1.2000E-09  5.0000E-09   0.000       0.000       0.000       0.000       0.000    
  10   5.0000E-10  5.2000E-09  2.1000E-09  1.2000E-09  5.8000E-09   0.000       0.000       0.000       0.000       0.000    
  11   1.0000E-10  1.1000E-09  1.1000E-09  1.2000E-09  5.0000E-09   0.000       0.000       0.000       0.000       0.000    
  12   1.1000E-09  1.1000E-09  1.1000E-09  1.1000E-09  2.0000E-09   0.000       0.000       0.000       0.000       0.000    
  13   1.1000E-09  2.2000E-09  2.2000E-09  2.1000E-09  1.0000E-09   0.000       0.000       0.000       0.000       0.000    
  14   2.0000E-10  5.5000E-09  5.5000E-09  5.2000E-09  1.0000E-09   0.000       0.000       0.000       0.000       0.000    
  15    0.000      8.8000E-09  8.8000E-09   0.000       0.000       0.000       0.000       0.000       0.000       0.000    

                  ET RATE =  4.000000E-07

 USING ET EXTINCTION DEPTH FROM PREVIOUS STRESS PERIOD. CURRENT PERIOD IS:       8

 USING EXTINCTION WATER CONTENT FROM PREVIOUS STRESS PERIOD. CURRENT PERIOD IS:       8

 USING AIR ENTRY PRESSURE FROM PREVIOUS STRESS PERIOD. CURRENT PERIOD IS:       8

 USING ROOT PRESSURE HEAD FROM PREVIOUS STRESS PERIOD. CURRENT PERIOD IS:       8

 USING ROOT ACTIVITY FROM PREVIOUS STRESS PERIOD. CURRENT PERIOD IS:       8

 PROCESSING AG STRESS PERIOD DATA

 READING AG STRESS PERIOD DATA

 READING IRRIGATION WELL

 END PROCESSING AG STRESS PERIOD DATA OPTIONS
 
 SOLVING FOR HEAD 
                                                   Max.-Head-Change                         Max.-Flux-Residual
  Residual-Control   Outer-Iter.   Inner-Iter.     Column Row Layer    Maximum-Head-Change  Column Row Layer    Maximum-Flux-Residual          L2-NORM 
          0                 1           2             4    7     1      -0.1675535452E+00       4    7    1        -0.8761749701E+01      0.2057697574E+02
          0                 2           2             4    7     1       0.1629811389E-01       4    7    1         0.8761565653E+00      0.2057438514E+01
          0                 3           2             4    7     1      -0.1109843844E-02       4    7    1        -0.6133116020E-01      0.1440003919E+00
          0                 4           1             4    7     1       0.4416171241E-04       4    7    1         0.2508447128E-02      0.5888420580E-02

    ------------------------------------------------
       NWT REQUIRED            4 OUTER ITERATIONS 
       AND A TOTAL OF          7 INNER ITERATIONS.
    ------------------------------------------------

 OUTPUT CONTROL FOR STRESS PERIOD    8   TIME STEP    1
    PRINT BUDGET
    SAVE BUDGET
 UBDSV1 SAVING "         STORAGE" ON UNIT 102 AT TIME STEP  1, STRESS PERIOD   8
 UBDSV2 SAVING "   CONSTANT HEAD" ON UNIT 102 AT TIME STEP  1, STRESS PERIOD   8
 UBDSV1 SAVING "FLOW RIGHT FACE " ON UNIT 102 AT TIME STEP  1, STRESS PERIOD   8
 UBDSV1 SAVING "FLOW FRONT FACE " ON UNIT 102 AT TIME STEP  1, STRESS PERIOD   8

  HEAD DEP BOUNDS   PERIOD    8   STEP     1
 BOUNDARY      1   LAYER   1   ROW    13   COL     1   RATE   -0.299665    
 BOUNDARY      2   LAYER   1   ROW    14   COL     9   RATE    0.285485    



 STREAM LISTING     PERIOD      8   STEP        1

 LAYER ROW COL. STREAM  RCH.  FLOW INTO     FLOW TO   FLOW OUT OF   OVRLND.     DIRECT     STREAM       STREAM     STREAM     STREAM   STREAMBED  STREAMBED
                SEG.NO.  NO.  STRM. RCH.    AQUIFER    STRM. RCH.    RUNOFF     PRECIP       ET          HEAD       DEPTH      WIDTH   CONDCTNC.   GRADIENT

   1    1    1     1     1    7.5000E+01  4.2232E-01   7.4578E+01  0.000E+00  0.000E+00  0.000E+00  1.09475E+03  1.698E+00  1.998E+01  8.990E-02  1.566E+00
   1    2    2     1     2    7.4578E+01  6.5422E-01   7.3924E+01  0.000E+00  0.000E+00  0.000E+00  1.08975E+03  1.692E+00  1.992E+01  1.394E-01  1.564E+00
   1    3    3     1     3    7.3924E+01  5.5813E-01   7.3366E+01  0.000E+00  0.000E+00  0.000E+00  1.08410E+03  1.685E+00  1.985E+01  1.191E-01  1.562E+00
   1    3    4     1     4    7.3366E+01  5.1412E-01   7.2852E+01  0.000E+00  0.000E+00  0.000E+00  1.07909E+03  1.679E+00  1.980E+01  1.099E-01  1.560E+00
   1    4    5     2     1    7.0852E+01  4.0967E-01   7.0442E+01  0.000E+00  0.000E+00  0.000E+00  1.07419E+03  2.252E+00  1.200E+01  7.800E-02  1.751E+00
   1    5    6     2     2    7.0442E+01  3.1471E-01   7.0127E+01  0.000E+00  0.000E+00  0.000E+00  1.06875E+03  2.245E+00  1.200E+01  6.000E-02  1.748E+00
   1    6    6     2     3    7.0127E+01  3.1435E-01   6.9813E+01  0.000E+00  0.000E+00  0.000E+00  1.06403E+03  2.239E+00  1.200E+01  6.000E-02  1.746E+00
   1    7    6     2     4    6.9813E+01  3.1399E-01   6.9499E+01  0.000E+00  0.000E+00  0.000E+00  1.05931E+03  2.233E+00  1.200E+01  6.000E-02  1.744E+00
   1    8    6     2     5    6.9499E+01  3.1363E-01   6.9185E+01  0.000E+00  0.000E+00  0.000E+00  1.05459E+03  2.227E+00  1.200E+01  6.000E-02  1.742E+00
   1    3    5     3     1    2.0000E+00  2.8252E-01   1.7175E+00  0.000E+00  0.000E+00  0.000E+00  1.07555E+03  1.909E+00  9.636E+00  7.227E-02  1.955E+00
   1    3    6     3     2    1.7175E+00  2.4905E-01   1.4684E+00  0.000E+00  0.000E+00  0.000E+00  1.07264E+03  1.727E+00  8.909E+00  6.682E-02  1.864E+00
   1    3    7     3     3    1.4684E+00  1.9718E-01   1.2712E+00  0.000E+00  0.000E+00  0.000E+00  1.06987E+03  1.555E+00  8.218E+00  5.547E-02  1.777E+00
   1    4    8     3     4    1.2712E+00  2.2567E-01   1.0456E+00  0.000E+00  0.000E+00  0.000E+00  1.06682E+03  1.364E+00  7.455E+00  6.709E-02  1.682E+00
   1    5    8     3     5    1.0456E+00  1.5790E-01   8.8768E-01  0.000E+00  0.000E+00  0.000E+00  1.06362E+03  1.164E+00  6.655E+00  4.991E-02  1.582E+00
   1    6    8     3     6    8.8768E-01  5.5980E-02   8.3170E-01  0.000E+00  0.000E+00  0.000E+00  1.06158E+03  1.036E+00  6.145E+00  1.844E-02  1.518E+00
   1    5   10     4     1    1.0000E+01  9.0919E-02   9.9091E+00  0.000E+00  0.000E+00  0.000E+00  1.07836E+03  6.368E-01  1.000E+01  2.500E-02  1.212E+00
   1    5    9     4     2    9.9091E+00  1.8158E-01   9.7275E+00  0.000E+00  0.000E+00  0.000E+00  1.07154E+03  6.315E-01  1.000E+01  5.000E-02  1.211E+00
   1    6    8     4     3    9.7275E+00  1.2689E-01   9.6006E+00  0.000E+00  0.000E+00  0.000E+00  1.06381E+03  6.256E-01  1.000E+01  3.500E-02  1.209E+00
   1    6    8     5     1    1.0432E+01  2.2686E-01   1.0205E+01  0.000E+00  0.000E+00  0.000E+00  1.05868E+03  6.790E-01  1.542E+01  6.166E-02  1.226E+00
   1    7    7     5     2    1.0205E+01  2.7894E-01   9.9265E+00  0.000E+00  0.000E+00  0.000E+00  1.05417E+03  6.732E-01  1.519E+01  7.594E-02  1.224E+00
   1    8    7     5     3    9.9265E+00  1.9221E-01   9.7343E+00  0.000E+00  0.000E+00  0.000E+00  1.04992E+03  6.676E-01  1.497E+01  5.241E-02  1.223E+00
   1    8    6     5     4    9.7343E+00  1.3577E-01   9.5985E+00  0.000E+00  0.000E+00  0.000E+00  1.04691E+03  6.637E-01  1.482E+01  3.706E-02  1.221E+00
   1    9    6     6     1    7.8784E+01  3.2569E-01   7.8458E+01  0.000E+00  0.000E+00  0.000E+00  1.04516E+03  2.428E+00  1.200E+01  6.000E-02  1.809E+00
   1   10    7     6     2    7.8458E+01  3.2533E-01   7.8133E+01  0.000E+00  0.000E+00  0.000E+00  1.04060E+03  2.422E+00  1.200E+01  6.000E-02  1.807E+00
   1   11    7     6     3    7.8133E+01  3.2497E-01   7.7808E+01  0.000E+00  0.000E+00  0.000E+00  1.03605E+03  2.416E+00  1.200E+01  6.000E-02  1.805E+00
   1   12    7     6     4    7.7808E+01  3.2461E-01   7.7483E+01  0.000E+00  0.000E+00  0.000E+00  1.03150E+03  2.410E+00  1.200E+01  6.000E-02  1.803E+00
   1   13    7     6     5    7.7483E+01  2.5995E-02   7.7457E+01  0.000E+00  0.000E+00  0.000E+00  1.02832E+03  2.407E+00  1.200E+01  2.400E-02  3.610E-01
   1   14    9     7     1    1.5000E+02  1.3318E+00   1.4867E+02  0.000E+00  0.000E+00  0.000E+00  1.03987E+03  2.288E+00  5.529E+01  5.593E-01  7.937E-01
   1   13    8     7     2    1.4867E+02  1.8022E+00   1.4687E+02  0.000E+00  0.000E+00  0.000E+00  1.03478E+03  2.279E+00  5.526E+01  6.148E-01  9.772E-01
   1   13    7     7     3    1.4687E+02  1.3724E+00   1.4549E+02  0.000E+00  0.000E+00  0.000E+00  1.02969E+03  2.271E+00  5.522E+01  5.585E-01  8.192E-01
   1   13    6     8     1    2.2295E+02  1.0172E+00   2.2193E+02  0.000E+00  0.000E+00  0.000E+00  1.02514E+03  3.265E+00  4.735E+01  4.825E-01  7.028E-01
   1   13    5     8     2    2.2193E+02  1.9721E-01   2.2174E+02  0.000E+00  0.000E+00  0.000E+00  1.01889E+03  3.262E+00  4.730E+01  4.820E-01  1.364E-01
   1   13    4     8     3    2.2174E+02 -2.0700E+00   2.2381E+02  0.000E+00  0.000E+00  0.000E+00  1.01264E+03  3.267E+00  4.737E+01  4.828E+00 -1.429E-01
   1   13    3     8     4    2.2381E+02 -3.2248E+00   2.2703E+02  0.000E+00  0.000E+00  0.000E+00  1.00641E+03  3.282E+00  4.758E+01  4.849E+00 -2.217E-01
   1   13    2     8     5    2.2703E+02 -2.6525E+00   2.2968E+02  0.000E+00  0.000E+00  0.000E+00  1.00017E+03  3.298E+00  4.782E+01  4.873E+00 -1.815E-01
   1   13    1     8     6    2.2968E+02 -2.0559E+00   2.3174E+02  0.000E+00  0.000E+00  0.000E+00  9.95185E+02  3.310E+00  4.800E+01  2.935E+00 -2.335E-01



 UBDSV3 SAVING "           GW ET" ON UNIT  61 AT TIME STEP  1, STRESS PERIOD   8
 UBDSV3 SAVING "    UZF RECHARGE" ON UNIT  61 AT TIME STEP  1, STRESS PERIOD   8
 UBDSV3 SAVING " SURFACE LEAKAGE" ON UNIT  61 AT TIME STEP  1, STRESS PERIOD   8
 UBDSV3 SAVING "       HORT+DUNN" ON UNIT  61 AT TIME STEP  1, STRESS PERIOD   8
 UBDSV3 SAVING "  STORAGE CHANGE" ON UNIT  61 AT TIME STEP  1, STRESS PERIOD   8


UNSATURATED ZONE PACKAGE VOLUMETRIC BUDGET FOR  TIME STEP     1 STRESS PERIOD    8
  ------------------------------------------------------------------------------



     CUMULATIVE VOLUMES      L**3       RATES FOR THIS TIME STEP      L**3/T
     ------------------                 ------------------------

           IN:                                      IN:
           ---                                      ---
        INFILTRATION =   160493525.4250          INFILTRATION =          64.0729

          OUT:                                     OUT:
          ----                                     ----
              UZF ET =   141946468.5334                UZF ET =          64.1075
        UZF RECHARGE =       73224.0000          UZF RECHARGE =       0.0000E+00

            IN - OUT =    18473832.8916              IN - OUT =      -3.4615E-02

          STORAGE:                                 STORAGE:
          --------                                 --------
      STORAGE CHANGE =    18473831.2070        STORAGE CHANGE =      -3.4616E-02

 PERCENT DISCREPANCY IS DIFFERENCE BETWEEN IN-OUT MINUS CHANGE IN STORAGE
 DIVIDED BY THE AVERAGE OF IN AND OUT TIMES 100

 PERCENT DISCREPANCY =           0.00     PERCENT DISCREPANCY =           0.00






 

            AG WELLS      PERIOD    8   STEP   1
 AG WELL      1   LAYER   1   ROW     6   COL     4   RATE    -9.96867    
 AG WELL      2   LAYER   1   ROW     6   COL     5   RATE    -9.95531    
 AG WELL      3   LAYER   1   ROW     7   COL     4   RATE    -9.96612    
 AG WELL      4   LAYER   1   ROW     7   COL     5   RATE    -9.94123    
 AG WELL      5   LAYER   1   ROW     8   COL     4   RATE    -9.96612    
 AG WELL      6   LAYER   1   ROW     8   COL     5   RATE    -9.86792    
 
 

        GW IRRIGATION     PERIOD    8   STEP   1
 AG WELL      1   ROW     6   COL     4   RATE     9.96867    
 AG WELL      2   ROW     6   COL     5   RATE     9.95531    
 AG WELL      3   ROW     7   COL     4   RATE     9.96612    
 AG WELL      4   ROW     7   COL     5   RATE     9.94123    
 AG WELL      5   ROW     8   COL     4   RATE     9.96612    
 AG WELL      6   ROW     8   COL     5   RATE     9.86792    
 
1
  VOLUMETRIC BUDGET FOR AGRICULTURAL FIELDS AT TIME STEP    1, STRESS PERIOD   8
  ------------------------------------------------------------------------------

     CUMULATIVE VOLUMES      L**3       RATES FOR THIS TIME STEP      L**3/T
     ------------------                 ------------------------

           IN:                                      IN:
           ---                                      ---
               AG WELLS  =    90483560.0000                 AG WELLS  =          59.6654
      DIVERSION SEGMENTS =           0.0000        DIVERSION SEGMENTS =           0.0000
           GW IRRIGATION =           0.0000             GW IRRIGATION =           0.0000
           SW IRRIGATION =           0.0000             SW IRRIGATION =           0.0000
        SYSTEM LOSSES GW =           0.0000          SYSTEM LOSSES GW =           0.0000
        SYSTEM LOSSES SW =           0.0000          SYSTEM LOSSES SW =           0.0000

                TOTAL IN =    90483560.0000                  TOTAL IN =          59.6654

          OUT:                                     OUT:
          ----                                     ----
               AG WELLS  =           0.0000                 AG WELLS  =           0.0000
      DIVERSION SEGMENTS =           0.0000        DIVERSION SEGMENTS =           0.0000
           GW IRRIGATION =    90483560.0000             GW IRRIGATION =          59.6654
           SW IRRIGATION =           0.0000             SW IRRIGATION =           0.0000
        SYSTEM LOSSES GW =           0.0000          SYSTEM LOSSES GW =           0.0000
        SYSTEM LOSSES SW =           0.0000          SYSTEM LOSSES SW =           0.0000

               TOTAL OUT =    90483560.0000                 TOTAL OUT =          59.6654

                IN - OUT =           0.0000                  IN - OUT =           0.0000

     PERCENT DISCREPANCY =           0.00         PERCENT DISCREPANCY =           0.00



1
  VOLUMETRIC BUDGET FOR ENTIRE MODEL AT END OF TIME STEP    1, STRESS PERIOD   8
  ------------------------------------------------------------------------------

     CUMULATIVE VOLUMES      L**3       RATES FOR THIS TIME STEP      L**3/T
     ------------------                 ------------------------

           IN:                                      IN:
           ---                                      ---
             STORAGE     =    96738344.0000               STORAGE     =          60.7762
       CONSTANT HEAD     =           0.0000         CONSTANT HEAD     =           0.0000
     HEAD DEP BOUNDS     =     4554132.0000       HEAD DEP BOUNDS     =           0.2855
      STREAM LEAKAGE     =   203365088.0000        STREAM LEAKAGE     =          13.2641
        UZF RECHARGE     =       73223.9531          UZF RECHARGE     =           0.0000
               GW ET     =           0.0000                 GW ET     =           0.0000
     SURFACE LEAKAGE     =           0.0000       SURFACE LEAKAGE     =           0.0000
           AG WELLS      =           0.0000             AG WELLS      =           0.0000

                TOTAL IN =   304730784.0000                  TOTAL IN =          74.3258

          OUT:                                     OUT:
          ----                                     ----
             STORAGE     =    42183112.0000               STORAGE     =           1.5189
       CONSTANT HEAD     =           0.0000         CONSTANT HEAD     =           0.0000
     HEAD DEP BOUNDS     =     4700395.5000       HEAD DEP BOUNDS     =           0.2997
      STREAM LEAKAGE     =   161350960.0000        STREAM LEAKAGE     =          10.0032
        UZF RECHARGE     =           0.0000          UZF RECHARGE     =           0.0000
               GW ET     =     6015556.5000                 GW ET     =           2.8388
     SURFACE LEAKAGE     =           0.0000       SURFACE LEAKAGE     =           0.0000
           AG WELLS      =    90483560.0000             AG WELLS      =          59.6654

               TOTAL OUT =   304733568.0000                 TOTAL OUT =          74.3260

                IN - OUT =       -2784.0000                  IN - OUT =      -2.1362E-04

     PERCENT DISCREPANCY =          -0.00         PERCENT DISCREPANCY =          -0.00






         TIME SUMMARY AT END OF TIME STEP    1 IN STRESS PERIOD    8
                    SECONDS     MINUTES      HOURS       DAYS        YEARS
                    -----------------------------------------------------------
   TIME STEP LENGTH  87667.      1461.1      24.352      1.0147     2.77799E-03
 STRESS PERIOD TIME  87667.      1461.1      24.352      1.0147     2.77799E-03
         TOTAL TIME 1.59541E+07 2.65901E+05  4431.7      184.65     0.50555    
1
 
 SOLVING FOR HEAD 
                                                   Max.-Head-Change                         Max.-Flux-Residual
  Residual-Control   Outer-Iter.   Inner-Iter.     Column Row Layer    Maximum-Head-Change  Column Row Layer    Maximum-Flux-Residual          L2-NORM 
          0                 1           2             4    7     1      -0.1664726737E+00       4    7    1        -0.8708162101E+01      0.2021566774E+02
          0                 2           2             4    7     1       0.1619295793E-01       4    7    1         0.8707966804E+00      0.2021417733E+01
          0                 3           2             4    7     1      -0.1102683276E-02       4    7    1        -0.6095597875E-01      0.1414888720E+00
          0                 4           1             4    7     1       0.4387678622E-04       4    7    1         0.2493102163E-02      0.5785705586E-02

    ------------------------------------------------
       NWT REQUIRED            4 OUTER ITERATIONS 
       AND A TOTAL OF          7 INNER ITERATIONS.
    ------------------------------------------------

 NO OUTPUT CONTROL FOR STRESS PERIOD    8   TIME STEP    2
 
 SOLVING FOR HEAD 
                                                   Max.-Head-Change                         Max.-Flux-Residual
  Residual-Control   Outer-Iter.   Inner-Iter.     Column Row Layer    Maximum-Head-Change  Column Row Layer    Maximum-Flux-Residual          L2-NORM 
          0                 1           2             4    7     1      -0.1653061141E+00       4    7    1        -0.8649804239E+01      0.1990186760E+02
          0                 2           2             4    7     1       0.1607946935E-01       4    7    1         0.8649599316E+00      0.1990093600E+01
          0                 3           2             4    7     1      -0.1094955263E-02       4    7    1        -0.6054741526E-01      0.1393012467E+00
          0                 4           1             4    7     1       0.4356928075E-04       4    7    1         0.2476391837E-02      0.5697053967E-02

    ------------------------------------------------
       NWT REQUIRED            4 OUTER ITERATIONS 
       AND A TOTAL OF          7 INNER ITERATIONS.
    ------------------------------------------------

 NO OUTPUT CONTROL FOR STRESS PERIOD    8   TIME STEP    3
 
 SOLVING FOR HEAD 
                                                   Max.-Head-Change                         Max.-Flux-Residual
  Residual-Control   Outer-Iter.   Inner-Iter.     Column Row Layer    Maximum-Head-Change  Column Row Layer    Maximum-Flux-Residual          L2-NORM 
          0                 1           2             4    7     1      -0.1641004837E+00       4    7    1        -0.8589179609E+01      0.1961078447E+02
          0                 2           2             4    7     1       0.1596218213E-01       4    7    1         0.8588966315E+00      0.1961013930E+01
          0                 3           2             4    7     1      -0.1086968557E-02       4    7    1        -0.6012299199E-01      0.1372682478E+00
          0                 4           1             4    7     1       0.4325148148E-04       4    7    1         0.2459032853E-02      0.5614100381E-02

    ------------------------------------------------
       NWT REQUIRED            4 OUTER ITERATIONS 
       AND A TOTAL OF          7 INNER ITERATIONS.
    ------------------------------------------------

 NO OUTPUT CONTROL FOR STRESS PERIOD    8   TIME STEP    4
 
 SOLVING FOR HEAD 
                                                   Max.-Head-Change                         Max.-Flux-Residual
  Residual-Control   Outer-Iter.   Inner-Iter.     Column Row Layer    Maximum-Head-Change  Column Row Layer    Maximum-Flux-Residual          L2-NORM 
          0                 1           2             4    7     1      -0.1628601582E+00       4    7    1        -0.8526530180E+01      0.1933654888E+02
          0                 2           2             4    7     1       0.1584152173E-01       4    7    1         0.8526309672E+00      0.1933605365E+01
          0                 3           2             4    7     1      -0.1078752135E-02       4    7    1        -0.5968440211E-01      0.1353510007E+00
          0                 4           1             4    7     1       0.4292454201E-04       4    7    1         0.2441094477E-02      0.5535769175E-02

    ------------------------------------------------
       NWT REQUIRED            4 OUTER ITERATIONS 
       AND A TOTAL OF          7 INNER ITERATIONS.
    ------------------------------------------------

 OUTPUT CONTROL FOR STRESS PERIOD    8   TIME STEP    5
    PRINT BUDGET
    SAVE BUDGET
 UBDSV1 SAVING "         STORAGE" ON UNIT 102 AT TIME STEP  5, STRESS PERIOD   8
 UBDSV2 SAVING "   CONSTANT HEAD" ON UNIT 102 AT TIME STEP  5, STRESS PERIOD   8
 UBDSV1 SAVING "FLOW RIGHT FACE " ON UNIT 102 AT TIME STEP  5, STRESS PERIOD   8
 UBDSV1 SAVING "FLOW FRONT FACE " ON UNIT 102 AT TIME STEP  5, STRESS PERIOD   8

  HEAD DEP BOUNDS   PERIOD    8   STEP     5
 BOUNDARY      1   LAYER   1   ROW    13   COL     1   RATE   -0.299428    
 BOUNDARY      2   LAYER   1   ROW    14   COL     9   RATE    0.285483    



 STREAM LISTING     PERIOD      8   STEP        5

 LAYER ROW COL. STREAM  RCH.  FLOW INTO     FLOW TO   FLOW OUT OF   OVRLND.     DIRECT     STREAM       STREAM     STREAM     STREAM   STREAMBED  STREAMBED
                SEG.NO.  NO.  STRM. RCH.    AQUIFER    STRM. RCH.    RUNOFF     PRECIP       ET          HEAD       DEPTH      WIDTH   CONDCTNC.   GRADIENT

   1    1    1     1     1    7.5000E+01  4.2232E-01   7.4578E+01  0.000E+00  0.000E+00  0.000E+00  1.09475E+03  1.698E+00  1.998E+01  8.990E-02  1.566E+00
   1    2    2     1     2    7.4578E+01  6.5422E-01   7.3924E+01  0.000E+00  0.000E+00  0.000E+00  1.08975E+03  1.692E+00  1.992E+01  1.394E-01  1.564E+00
   1    3    3     1     3    7.3924E+01  5.5813E-01   7.3366E+01  0.000E+00  0.000E+00  0.000E+00  1.08410E+03  1.685E+00  1.985E+01  1.191E-01  1.562E+00
   1    3    4     1     4    7.3366E+01  5.1412E-01   7.2852E+01  0.000E+00  0.000E+00  0.000E+00  1.07909E+03  1.679E+00  1.980E+01  1.099E-01  1.560E+00
   1    4    5     2     1    7.0852E+01  4.0967E-01   7.0442E+01  0.000E+00  0.000E+00  0.000E+00  1.07419E+03  2.252E+00  1.200E+01  7.800E-02  1.751E+00
   1    5    6     2     2    7.0442E+01  3.1471E-01   7.0127E+01  0.000E+00  0.000E+00  0.000E+00  1.06875E+03  2.245E+00  1.200E+01  6.000E-02  1.748E+00
   1    6    6     2     3    7.0127E+01  3.1435E-01   6.9813E+01  0.000E+00  0.000E+00  0.000E+00  1.06403E+03  2.239E+00  1.200E+01  6.000E-02  1.746E+00
   1    7    6     2     4    6.9813E+01  3.1399E-01   6.9499E+01  0.000E+00  0.000E+00  0.000E+00  1.05931E+03  2.233E+00  1.200E+01  6.000E-02  1.744E+00
   1    8    6     2     5    6.9499E+01  3.1363E-01   6.9185E+01  0.000E+00  0.000E+00  0.000E+00  1.05459E+03  2.227E+00  1.200E+01  6.000E-02  1.742E+00
   1    3    5     3     1    2.0000E+00  2.8252E-01   1.7175E+00  0.000E+00  0.000E+00  0.000E+00  1.07555E+03  1.909E+00  9.636E+00  7.227E-02  1.955E+00
   1    3    6     3     2    1.7175E+00  2.4905E-01   1.4684E+00  0.000E+00  0.000E+00  0.000E+00  1.07264E+03  1.727E+00  8.909E+00  6.682E-02  1.864E+00
   1    3    7     3     3    1.4684E+00  1.9718E-01   1.2712E+00  0.000E+00  0.000E+00  0.000E+00  1.06987E+03  1.555E+00  8.218E+00  5.547E-02  1.777E+00
   1    4    8     3     4    1.2712E+00  2.2567E-01   1.0456E+00  0.000E+00  0.000E+00  0.000E+00  1.06682E+03  1.364E+00  7.455E+00  6.709E-02  1.682E+00
   1    5    8     3     5    1.0456E+00  1.5790E-01   8.8768E-01  0.000E+00  0.000E+00  0.000E+00  1.06362E+03  1.164E+00  6.655E+00  4.991E-02  1.582E+00
   1    6    8     3     6    8.8768E-01  5.5980E-02   8.3170E-01  0.000E+00  0.000E+00  0.000E+00  1.06158E+03  1.036E+00  6.145E+00  1.844E-02  1.518E+00
   1    5   10     4     1    1.0000E+01  9.0919E-02   9.9091E+00  0.000E+00  0.000E+00  0.000E+00  1.07836E+03  6.368E-01  1.000E+01  2.500E-02  1.212E+00
   1    5    9     4     2    9.9091E+00  1.8158E-01   9.7275E+00  0.000E+00  0.000E+00  0.000E+00  1.07154E+03  6.315E-01  1.000E+01  5.000E-02  1.211E+00
   1    6    8     4     3    9.7275E+00  1.2689E-01   9.6006E+00  0.000E+00  0.000E+00  0.000E+00  1.06381E+03  6.256E-01  1.000E+01  3.500E-02  1.209E+00
   1    6    8     5     1    1.0432E+01  2.2686E-01   1.0205E+01  0.000E+00  0.000E+00  0.000E+00  1.05868E+03  6.790E-01  1.542E+01  6.166E-02  1.226E+00
   1    7    7     5     2    1.0205E+01  2.7894E-01   9.9265E+00  0.000E+00  0.000E+00  0.000E+00  1.05417E+03  6.732E-01  1.519E+01  7.594E-02  1.224E+00
   1    8    7     5     3    9.9265E+00  1.9221E-01   9.7343E+00  0.000E+00  0.000E+00  0.000E+00  1.04992E+03  6.676E-01  1.497E+01  5.241E-02  1.223E+00
   1    8    6     5     4    9.7343E+00  1.3577E-01   9.5985E+00  0.000E+00  0.000E+00  0.000E+00  1.04691E+03  6.637E-01  1.482E+01  3.706E-02  1.221E+00
   1    9    6     6     1    7.8784E+01  3.2569E-01   7.8458E+01  0.000E+00  0.000E+00  0.000E+00  1.04516E+03  2.428E+00  1.200E+01  6.000E-02  1.809E+00
   1   10    7     6     2    7.8458E+01  3.2533E-01   7.8133E+01  0.000E+00  0.000E+00  0.000E+00  1.04060E+03  2.422E+00  1.200E+01  6.000E-02  1.807E+00
   1   11    7     6     3    7.8133E+01  3.2497E-01   7.7808E+01  0.000E+00  0.000E+00  0.000E+00  1.03605E+03  2.416E+00  1.200E+01  6.000E-02  1.805E+00
   1   12    7     6     4    7.7808E+01  3.2461E-01   7.7483E+01  0.000E+00  0.000E+00  0.000E+00  1.03150E+03  2.410E+00  1.200E+01  6.000E-02  1.803E+00
   1   13    7     6     5    7.7483E+01  2.5949E-02   7.7457E+01  0.000E+00  0.000E+00  0.000E+00  1.02832E+03  2.407E+00  1.200E+01  2.400E-02  3.604E-01
   1   14    9     7     1    1.5000E+02  1.3318E+00   1.4867E+02  0.000E+00  0.000E+00  0.000E+00  1.03987E+03  2.288E+00  5.529E+01  5.593E-01  7.937E-01
   1   13    8     7     2    1.4867E+02  1.8016E+00   1.4687E+02  0.000E+00  0.000E+00  0.000E+00  1.03478E+03  2.279E+00  5.526E+01  6.148E-01  9.768E-01
   1   13    7     7     3    1.4687E+02  1.3713E+00   1.4550E+02  0.000E+00  0.000E+00  0.000E+00  1.02969E+03  2.271E+00  5.522E+01  5.585E-01  8.185E-01
   1   13    6     8     1    2.2295E+02  1.0171E+00   2.2194E+02  0.000E+00  0.000E+00  0.000E+00  1.02514E+03  3.265E+00  4.735E+01  4.825E-01  7.027E-01
   1   13    5     8     2    2.2194E+02  1.9809E-01   2.2174E+02  0.000E+00  0.000E+00  0.000E+00  1.01889E+03  3.262E+00  4.730E+01  4.820E-01  1.370E-01
   1   13    4     8     3    2.2174E+02 -1.9512E+00   2.2369E+02  0.000E+00  0.000E+00  0.000E+00  1.01264E+03  3.267E+00  4.737E+01  4.827E+00 -1.347E-01
   1   13    3     8     4    2.2369E+02 -3.1056E+00   2.2679E+02  0.000E+00  0.000E+00  0.000E+00  1.00641E+03  3.281E+00  4.757E+01  4.848E+00 -2.135E-01
   1   13    2     8     5    2.2679E+02 -2.6101E+00   2.2940E+02  0.000E+00  0.000E+00  0.000E+00  1.00017E+03  3.296E+00  4.780E+01  4.871E+00 -1.786E-01
   1   13    1     8     6    2.2940E+02 -2.0413E+00   2.3145E+02  0.000E+00  0.000E+00  0.000E+00  9.95184E+02  3.309E+00  4.798E+01  2.933E+00 -2.319E-01



 UBDSV3 SAVING "           GW ET" ON UNIT  61 AT TIME STEP  5, STRESS PERIOD   8
 UBDSV3 SAVING "    UZF RECHARGE" ON UNIT  61 AT TIME STEP  5, STRESS PERIOD   8
 UBDSV3 SAVING " SURFACE LEAKAGE" ON UNIT  61 AT TIME STEP  5, STRESS PERIOD   8
 UBDSV3 SAVING "       HORT+DUNN" ON UNIT  61 AT TIME STEP  5, STRESS PERIOD   8
 UBDSV3 SAVING "  STORAGE CHANGE" ON UNIT  61 AT TIME STEP  5, STRESS PERIOD   8


UNSATURATED ZONE PACKAGE VOLUMETRIC BUDGET FOR  TIME STEP     5 STRESS PERIOD    8
  ------------------------------------------------------------------------------



     CUMULATIVE VOLUMES      L**3       RATES FOR THIS TIME STEP      L**3/T
     ------------------                 ------------------------

           IN:                                      IN:
           ---                                      ---
        INFILTRATION =   182951485.3899          INFILTRATION =          64.0464

          OUT:                                     OUT:
          ----                                     ----
              UZF ET =   164426830.8108                UZF ET =          64.1075
        UZF RECHARGE =       73224.0000          UZF RECHARGE =       0.0000E+00

            IN - OUT =    18451430.5791              IN - OUT =      -6.1133E-02

          STORAGE:                                 STORAGE:
          --------                                 --------
      STORAGE CHANGE =    18451428.3430        STORAGE CHANGE =      -6.1134E-02

 PERCENT DISCREPANCY IS DIFFERENCE BETWEEN IN-OUT MINUS CHANGE IN STORAGE
 DIVIDED BY THE AVERAGE OF IN AND OUT TIMES 100

 PERCENT DISCREPANCY =           0.00     PERCENT DISCREPANCY =           0.00






 

            AG WELLS      PERIOD    8   STEP   5
 AG WELL      1   LAYER   1   ROW     6   COL     4   RATE    -9.97089    
 AG WELL      2   LAYER   1   ROW     6   COL     5   RATE    -9.95932    
 AG WELL      3   LAYER   1   ROW     7   COL     4   RATE    -9.96837    
 AG WELL      4   LAYER   1   ROW     7   COL     5   RATE    -9.94044    
 AG WELL      5   LAYER   1   ROW     8   COL     4   RATE    -9.96837    
 AG WELL      6   LAYER   1   ROW     8   COL     5   RATE    -9.83148    
 
 

        GW IRRIGATION     PERIOD    8   STEP   5
 AG WELL      1   ROW     6   COL     4   RATE     9.97089    
 AG WELL      2   ROW     6   COL     5   RATE     9.95932    
 AG WELL      3   ROW     7   COL     4   RATE     9.96837    
 AG WELL      4   ROW     7   COL     5   RATE     9.94044    
 AG WELL      5   ROW     8   COL     4   RATE     9.96837    
 AG WELL      6   ROW     8   COL     5   RATE     9.83148    
 
1
  VOLUMETRIC BUDGET FOR AGRICULTURAL FIELDS AT TIME STEP    5, STRESS PERIOD   8
  ------------------------------------------------------------------------------

     CUMULATIVE VOLUMES      L**3       RATES FOR THIS TIME STEP      L**3/T
     ------------------                 ------------------------

           IN:                                      IN:
           ---                                      ---
               AG WELLS  =   111395960.0000                 AG WELLS  =          59.6389
      DIVERSION SEGMENTS =           0.0000        DIVERSION SEGMENTS =           0.0000
           GW IRRIGATION =           0.0000             GW IRRIGATION =           0.0000
           SW IRRIGATION =           0.0000             SW IRRIGATION =           0.0000
        SYSTEM LOSSES GW =           0.0000          SYSTEM LOSSES GW =           0.0000
        SYSTEM LOSSES SW =           0.0000          SYSTEM LOSSES SW =           0.0000

                TOTAL IN =   111395960.0000                  TOTAL IN =          59.6389

          OUT:                                     OUT:
          ----                                     ----
               AG WELLS  =           0.0000                 AG WELLS  =           0.0000
      DIVERSION SEGMENTS =           0.0000        DIVERSION SEGMENTS =           0.0000
           GW IRRIGATION =   111395960.0000             GW IRRIGATION =          59.6389
           SW IRRIGATION =           0.0000             SW IRRIGATION =           0.0000
        SYSTEM LOSSES GW =           0.0000          SYSTEM LOSSES GW =           0.0000
        SYSTEM LOSSES SW =           0.0000          SYSTEM LOSSES SW =           0.0000

               TOTAL OUT =   111395960.0000                 TOTAL OUT =          59.6389

                IN - OUT =           0.0000                  IN - OUT =           0.0000

     PERCENT DISCREPANCY =           0.00         PERCENT DISCREPANCY =           0.00



1
  VOLUMETRIC BUDGET FOR ENTIRE MODEL AT END OF TIME STEP    5, STRESS PERIOD   8
  ------------------------------------------------------------------------------

     CUMULATIVE VOLUMES      L**3       RATES FOR THIS TIME STEP      L**3/T
     ------------------                 ------------------------

           IN:                                      IN:
           ---                                      ---
             STORAGE     =   117696016.0000               STORAGE     =          59.4025
       CONSTANT HEAD     =           0.0000         CONSTANT HEAD     =           0.0000
     HEAD DEP BOUNDS     =     4654242.0000       HEAD DEP BOUNDS     =           0.2855
      STREAM LEAKAGE     =   208016144.0000        STREAM LEAKAGE     =          13.2631
        UZF RECHARGE     =       73223.9531          UZF RECHARGE     =           0.0000
               GW ET     =           0.0000                 GW ET     =           0.0000
     SURFACE LEAKAGE     =           0.0000       SURFACE LEAKAGE     =           0.0000
           AG WELLS      =           0.0000             AG WELLS      =           0.0000

                TOTAL IN =   330439616.0000                  TOTAL IN =          72.9511

          OUT:                                     OUT:
          ----                                     ----
             STORAGE     =    42703948.0000               STORAGE     =           1.4658
       CONSTANT HEAD     =           0.0000         CONSTANT HEAD     =           0.0000
     HEAD DEP BOUNDS     =     4805425.0000       HEAD DEP BOUNDS     =           0.2994
      STREAM LEAKAGE     =   164784576.0000        STREAM LEAKAGE     =           9.7081
        UZF RECHARGE     =           0.0000          UZF RECHARGE     =           0.0000
               GW ET     =     6752580.5000                 GW ET     =           1.8391
     SURFACE LEAKAGE     =           0.0000       SURFACE LEAKAGE     =           0.0000
           AG WELLS      =   111395960.0000             AG WELLS      =          59.6389

               TOTAL OUT =   330442496.0000                 TOTAL OUT =          72.9513

                IN - OUT =       -2880.0000                  IN - OUT =      -2.0599E-04

     PERCENT DISCREPANCY =          -0.00         PERCENT DISCREPANCY =          -0.00






         TIME SUMMARY AT END OF TIME STEP    5 IN STRESS PERIOD    8
                    SECONDS     MINUTES      HOURS       DAYS        YEARS
                    -----------------------------------------------------------
   TIME STEP LENGTH  87667.      1461.1      24.352      1.0147     2.77799E-03
 STRESS PERIOD TIME 4.38333E+05  7305.6      121.76      5.0733     1.38899E-02
         TOTAL TIME 1.63048E+07 2.71746E+05  4529.1      188.71     0.51667    
1
 
 SOLVING FOR HEAD 
                                                   Max.-Head-Change                         Max.-Flux-Residual
  Residual-Control   Outer-Iter.   Inner-Iter.     Column Row Layer    Maximum-Head-Change  Column Row Layer    Maximum-Flux-Residual          L2-NORM 
          0                 1           2             4    7     1      -0.1615892306E+00       4    7    1        -0.8462081878E+01      0.1907594690E+02
          0                 2           2             4    7     1       0.1571788616E-01       4    7    1         0.8461855222E+00      0.1907553386E+01
          0                 3           2             4    7     1      -0.1070333099E-02       4    7    1        -0.5923322658E-01      0.1335280830E+00
          0                 4           1             4    7     1       0.4258954038E-04       4    7    1         0.2422641352E-02      0.5461247074E-02

    ------------------------------------------------
       NWT REQUIRED            4 OUTER ITERATIONS 
       AND A TOTAL OF          7 INNER ITERATIONS.
    ------------------------------------------------

 NO OUTPUT CONTROL FOR STRESS PERIOD    8   TIME STEP    6
 
 SOLVING FOR HEAD 
                                                   Max.-Head-Change                         Max.-Flux-Residual
  Residual-Control   Outer-Iter.   Inner-Iter.     Column Row Layer    Maximum-Head-Change  Column Row Layer    Maximum-Flux-Residual          L2-NORM 
          0                 1           2             4    7     1      -0.1602913984E+00       4    7    1        -0.8396039570E+01      0.1882706228E+02
          0                 2           2             4    7     1       0.1559163498E-01       4    7    1         0.8395807750E+00      0.1882669374E+01
          0                 3           2             4    7     1      -0.1061735934E-02       4    7    1        -0.5877089897E-01      0.1317865812E+00
          0                 4           1             4    7     1       0.4224745080E-04       4    7    1         0.2403732093E-02      0.5390035890E-02

    ------------------------------------------------
       NWT REQUIRED            4 OUTER ITERATIONS 
       AND A TOTAL OF          7 INNER ITERATIONS.
    ------------------------------------------------

 NO OUTPUT CONTROL FOR STRESS PERIOD    8   TIME STEP    7
 
 SOLVING FOR HEAD 
                                                   Max.-Head-Change                         Max.-Flux-Residual
  Residual-Control   Outer-Iter.   Inner-Iter.     Column Row Layer    Maximum-Head-Change  Column Row Layer    Maximum-Flux-Residual          L2-NORM 
          0                 1           2             4    7     1      -0.1589701166E+00       4    7    1        -0.8328594991E+01      0.1858862248E+02
          0                 2           2             4    7     1       0.1546310412E-01       4    7    1         0.8328358911E+00      0.1858828097E+01
          0                 3           2             4    7     1      -0.1052983520E-02       4    7    1        -0.5829876092E-01      0.1301179162E+00
          0                 4           1             4    7     1       0.4189918359E-04       4    7    1         0.2384421605E-02      0.5321806450E-02

    ------------------------------------------------
       NWT REQUIRED            4 OUTER ITERATIONS 
       AND A TOTAL OF          7 INNER ITERATIONS.
    ------------------------------------------------

 NO OUTPUT CONTROL FOR STRESS PERIOD    8   TIME STEP    8
 
 SOLVING FOR HEAD 
                                                   Max.-Head-Change                         Max.-Flux-Residual
  Residual-Control   Outer-Iter.   Inner-Iter.     Column Row Layer    Maximum-Head-Change  Column Row Layer    Maximum-Flux-Residual          L2-NORM 
          0                 1           2             4    7     1      -0.1576288790E+00       4    7    1        -0.8259941998E+01      0.1835973317E+02
          0                 2           2             4    7     1       0.1533263333E-01       4    7    1         0.8259702484E+00      0.1835940921E+01
          0                 3           2             4    7     1      -0.1044098991E-02       4    7    1        -0.5781816897E-01      0.1285159417E+00
          0                 4           1             4    7     1       0.4154565966E-04       4    7    1         0.2364765349E-02      0.5256291289E-02

    ------------------------------------------------
       NWT REQUIRED            4 OUTER ITERATIONS 
       AND A TOTAL OF          7 INNER ITERATIONS.
    ------------------------------------------------

 NO OUTPUT CONTROL FOR STRESS PERIOD    8   TIME STEP    9
 
 SOLVING FOR HEAD 
                                                   Max.-Head-Change                         Max.-Flux-Residual
  Residual-Control   Outer-Iter.   Inner-Iter.     Column Row Layer    Maximum-Head-Change  Column Row Layer    Maximum-Flux-Residual          L2-NORM 
          0                 1           2             4    7     1      -0.1562706823E+00       4    7    1        -0.8190247034E+01      0.1813966780E+02
          0                 2           2             4    7     1       0.1520051336E-01       4    7    1         0.8190004845E+00      0.1813916975E+01
          0                 3           2             4    7     1      -0.1035102149E-02       4    7    1        -0.5733028782E-01      0.1269743466E+00
          0                 4           1             4    7     1       0.4118766693E-04       4    7    1         0.2344810981E-02      0.5193249956E-02

    ------------------------------------------------
       NWT REQUIRED            4 OUTER ITERATIONS 
       AND A TOTAL OF          7 INNER ITERATIONS.
    ------------------------------------------------

 OUTPUT CONTROL FOR STRESS PERIOD    8   TIME STEP   10
    PRINT BUDGET
    SAVE BUDGET
 UBDSV1 SAVING "         STORAGE" ON UNIT 102 AT TIME STEP 10, STRESS PERIOD   8
 UBDSV2 SAVING "   CONSTANT HEAD" ON UNIT 102 AT TIME STEP 10, STRESS PERIOD   8
 UBDSV1 SAVING "FLOW RIGHT FACE " ON UNIT 102 AT TIME STEP 10, STRESS PERIOD   8
 UBDSV1 SAVING "FLOW FRONT FACE " ON UNIT 102 AT TIME STEP 10, STRESS PERIOD   8

  HEAD DEP BOUNDS   PERIOD    8   STEP    10
 BOUNDARY      1   LAYER   1   ROW    13   COL     1   RATE   -0.299186    
 BOUNDARY      2   LAYER   1   ROW    14   COL     9   RATE    0.285481    



 STREAM LISTING     PERIOD      8   STEP       10

 LAYER ROW COL. STREAM  RCH.  FLOW INTO     FLOW TO   FLOW OUT OF   OVRLND.     DIRECT     STREAM       STREAM     STREAM     STREAM   STREAMBED  STREAMBED
                SEG.NO.  NO.  STRM. RCH.    AQUIFER    STRM. RCH.    RUNOFF     PRECIP       ET          HEAD       DEPTH      WIDTH   CONDCTNC.   GRADIENT

   1    1    1     1     1    7.5000E+01  4.2232E-01   7.4578E+01  0.000E+00  0.000E+00  0.000E+00  1.09475E+03  1.698E+00  1.998E+01  8.990E-02  1.566E+00
   1    2    2     1     2    7.4578E+01  6.5422E-01   7.3924E+01  0.000E+00  0.000E+00  0.000E+00  1.08975E+03  1.692E+00  1.992E+01  1.394E-01  1.564E+00
   1    3    3     1     3    7.3924E+01  5.5813E-01   7.3366E+01  0.000E+00  0.000E+00  0.000E+00  1.08410E+03  1.685E+00  1.985E+01  1.191E-01  1.562E+00
   1    3    4     1     4    7.3366E+01  5.1412E-01   7.2852E+01  0.000E+00  0.000E+00  0.000E+00  1.07909E+03  1.679E+00  1.980E+01  1.099E-01  1.560E+00
   1    4    5     2     1    7.0852E+01  4.0967E-01   7.0442E+01  0.000E+00  0.000E+00  0.000E+00  1.07419E+03  2.252E+00  1.200E+01  7.800E-02  1.751E+00
   1    5    6     2     2    7.0442E+01  3.1471E-01   7.0127E+01  0.000E+00  0.000E+00  0.000E+00  1.06875E+03  2.245E+00  1.200E+01  6.000E-02  1.748E+00
   1    6    6     2     3    7.0127E+01  3.1435E-01   6.9813E+01  0.000E+00  0.000E+00  0.000E+00  1.06403E+03  2.239E+00  1.200E+01  6.000E-02  1.746E+00
   1    7    6     2     4    6.9813E+01  3.1399E-01   6.9499E+01  0.000E+00  0.000E+00  0.000E+00  1.05931E+03  2.233E+00  1.200E+01  6.000E-02  1.744E+00
   1    8    6     2     5    6.9499E+01  3.1363E-01   6.9185E+01  0.000E+00  0.000E+00  0.000E+00  1.05459E+03  2.227E+00  1.200E+01  6.000E-02  1.742E+00
   1    3    5     3     1    2.0000E+00  2.8252E-01   1.7175E+00  0.000E+00  0.000E+00  0.000E+00  1.07555E+03  1.909E+00  9.636E+00  7.227E-02  1.955E+00
   1    3    6     3     2    1.7175E+00  2.4905E-01   1.4684E+00  0.000E+00  0.000E+00  0.000E+00  1.07264E+03  1.727E+00  8.909E+00  6.682E-02  1.864E+00
   1    3    7     3     3    1.4684E+00  1.9718E-01   1.2712E+00  0.000E+00  0.000E+00  0.000E+00  1.06987E+03  1.555E+00  8.218E+00  5.547E-02  1.777E+00
   1    4    8     3     4    1.2712E+00  2.2567E-01   1.0456E+00  0.000E+00  0.000E+00  0.000E+00  1.06682E+03  1.364E+00  7.455E+00  6.709E-02  1.682E+00
   1    5    8     3     5    1.0456E+00  1.5790E-01   8.8768E-01  0.000E+00  0.000E+00  0.000E+00  1.06362E+03  1.164E+00  6.655E+00  4.991E-02  1.582E+00
   1    6    8     3     6    8.8768E-01  5.5980E-02   8.3170E-01  0.000E+00  0.000E+00  0.000E+00  1.06158E+03  1.036E+00  6.145E+00  1.844E-02  1.518E+00
   1    5   10     4     1    1.0000E+01  9.0919E-02   9.9091E+00  0.000E+00  0.000E+00  0.000E+00  1.07836E+03  6.368E-01  1.000E+01  2.500E-02  1.212E+00
   1    5    9     4     2    9.9091E+00  1.8158E-01   9.7275E+00  0.000E+00  0.000E+00  0.000E+00  1.07154E+03  6.315E-01  1.000E+01  5.000E-02  1.211E+00
   1    6    8     4     3    9.7275E+00  1.2689E-01   9.6006E+00  0.000E+00  0.000E+00  0.000E+00  1.06381E+03  6.256E-01  1.000E+01  3.500E-02  1.209E+00
   1    6    8     5     1    1.0432E+01  2.2686E-01   1.0205E+01  0.000E+00  0.000E+00  0.000E+00  1.05868E+03  6.790E-01  1.542E+01  6.166E-02  1.226E+00
   1    7    7     5     2    1.0205E+01  2.7894E-01   9.9265E+00  0.000E+00  0.000E+00  0.000E+00  1.05417E+03  6.732E-01  1.519E+01  7.594E-02  1.224E+00
   1    8    7     5     3    9.9265E+00  1.9221E-01   9.7343E+00  0.000E+00  0.000E+00  0.000E+00  1.04992E+03  6.676E-01  1.497E+01  5.241E-02  1.223E+00
   1    8    6     5     4    9.7343E+00  1.3577E-01   9.5985E+00  0.000E+00  0.000E+00  0.000E+00  1.04691E+03  6.637E-01  1.482E+01  3.706E-02  1.221E+00
   1    9    6     6     1    7.8784E+01  3.2569E-01   7.8458E+01  0.000E+00  0.000E+00  0.000E+00  1.04516E+03  2.428E+00  1.200E+01  6.000E-02  1.809E+00
   1   10    7     6     2    7.8458E+01  3.2533E-01   7.8133E+01  0.000E+00  0.000E+00  0.000E+00  1.04060E+03  2.422E+00  1.200E+01  6.000E-02  1.807E+00
   1   11    7     6     3    7.8133E+01  3.2497E-01   7.7808E+01  0.000E+00  0.000E+00  0.000E+00  1.03605E+03  2.416E+00  1.200E+01  6.000E-02  1.805E+00
   1   12    7     6     4    7.7808E+01  3.2461E-01   7.7483E+01  0.000E+00  0.000E+00  0.000E+00  1.03150E+03  2.410E+00  1.200E+01  6.000E-02  1.803E+00
   1   13    7     6     5    7.7483E+01  2.5895E-02   7.7457E+01  0.000E+00  0.000E+00  0.000E+00  1.02832E+03  2.407E+00  1.200E+01  2.400E-02  3.597E-01
   1   14    9     7     1    1.5000E+02  1.3317E+00   1.4867E+02  0.000E+00  0.000E+00  0.000E+00  1.03987E+03  2.288E+00  5.529E+01  5.593E-01  7.937E-01
   1   13    8     7     2    1.4867E+02  1.8009E+00   1.4687E+02  0.000E+00  0.000E+00  0.000E+00  1.03478E+03  2.279E+00  5.526E+01  6.148E-01  9.765E-01
   1   13    7     7     3    1.4687E+02  1.3701E+00   1.4550E+02  0.000E+00  0.000E+00  0.000E+00  1.02969E+03  2.271E+00  5.522E+01  5.585E-01  8.178E-01
   1   13    6     8     1    2.2295E+02  1.0169E+00   2.2194E+02  0.000E+00  0.000E+00  0.000E+00  1.02514E+03  3.265E+00  4.735E+01  4.825E-01  7.025E-01
   1   13    5     8     2    2.2194E+02  1.9918E-01   2.2174E+02  0.000E+00  0.000E+00  0.000E+00  1.01889E+03  3.262E+00  4.730E+01  4.820E-01  1.377E-01
   1   13    4     8     3    2.2174E+02 -1.9222E+00   2.2366E+02  0.000E+00  0.000E+00  0.000E+00  1.01264E+03  3.267E+00  4.737E+01  4.827E+00 -1.327E-01
   1   13    3     8     4    2.2366E+02 -3.0755E+00   2.2674E+02  0.000E+00  0.000E+00  0.000E+00  1.00641E+03  3.280E+00  4.757E+01  4.847E+00 -2.115E-01
   1   13    2     8     5    2.2674E+02 -2.5697E+00   2.2931E+02  0.000E+00  0.000E+00  0.000E+00  1.00017E+03  3.296E+00  4.779E+01  4.870E+00 -1.759E-01
   1   13    1     8     6    2.2931E+02 -2.0239E+00   2.3133E+02  0.000E+00  0.000E+00  0.000E+00  9.95183E+02  3.308E+00  4.797E+01  2.933E+00 -2.300E-01



 UBDSV3 SAVING "           GW ET" ON UNIT  61 AT TIME STEP 10, STRESS PERIOD   8
 UBDSV3 SAVING "    UZF RECHARGE" ON UNIT  61 AT TIME STEP 10, STRESS PERIOD   8
 UBDSV3 SAVING " SURFACE LEAKAGE" ON UNIT  61 AT TIME STEP 10, STRESS PERIOD   8
 UBDSV3 SAVING "       HORT+DUNN" ON UNIT  61 AT TIME STEP 10, STRESS PERIOD   8
 UBDSV3 SAVING "  STORAGE CHANGE" ON UNIT  61 AT TIME STEP 10, STRESS PERIOD   8


UNSATURATED ZONE PACKAGE VOLUMETRIC BUDGET FOR  TIME STEP    10 STRESS PERIOD    8
  ------------------------------------------------------------------------------



     CUMULATIVE VOLUMES      L**3       RATES FOR THIS TIME STEP      L**3/T
     ------------------                 ------------------------

           IN:                                      IN:
           ---                                      ---
        INFILTRATION =   211027251.1116          INFILTRATION =          64.0542

          OUT:                                     OUT:
          ----                                     ----
              UZF ET =   192527283.6575                UZF ET =          64.1075
        UZF RECHARGE =       73224.0000          UZF RECHARGE =       0.0000E+00

            IN - OUT =    18426743.4541              IN - OUT =      -5.3337E-02

          STORAGE:                                 STORAGE:
          --------                                 --------
      STORAGE CHANGE =    18426740.3361        STORAGE CHANGE =      -5.3338E-02

 PERCENT DISCREPANCY IS DIFFERENCE BETWEEN IN-OUT MINUS CHANGE IN STORAGE
 DIVIDED BY THE AVERAGE OF IN AND OUT TIMES 100

 PERCENT DISCREPANCY =           0.00     PERCENT DISCREPANCY =           0.00






 

            AG WELLS      PERIOD    8   STEP  10
 AG WELL      1   LAYER   1   ROW     6   COL     4   RATE    -9.97095    
 AG WELL      2   LAYER   1   ROW     6   COL     5   RATE    -9.95946    
 AG WELL      3   LAYER   1   ROW     7   COL     4   RATE    -9.96843    
 AG WELL      4   LAYER   1   ROW     7   COL     5   RATE    -9.94105    
 AG WELL      5   LAYER   1   ROW     8   COL     4   RATE    -9.96843    
 AG WELL      6   LAYER   1   ROW     8   COL     5   RATE    -9.83835    
 
 

        GW IRRIGATION     PERIOD    8   STEP  10
 AG WELL      1   ROW     6   COL     4   RATE     9.97095    
 AG WELL      2   ROW     6   COL     5   RATE     9.95946    
 AG WELL      3   ROW     7   COL     4   RATE     9.96843    
 AG WELL      4   ROW     7   COL     5   RATE     9.94105    
 AG WELL      5   ROW     8   COL     4   RATE     9.96843    
 AG WELL      6   ROW     8   COL     5   RATE     9.83835    
 
1
  VOLUMETRIC BUDGET FOR AGRICULTURAL FIELDS AT TIME STEP   10, STRESS PERIOD   8
  ------------------------------------------------------------------------------

     CUMULATIVE VOLUMES      L**3       RATES FOR THIS TIME STEP      L**3/T
     ------------------                 ------------------------

           IN:                                      IN:
           ---                                      ---
               AG WELLS  =   137539760.0000                 AG WELLS  =          59.6467
      DIVERSION SEGMENTS =           0.0000        DIVERSION SEGMENTS =           0.0000
           GW IRRIGATION =           0.0000             GW IRRIGATION =           0.0000
           SW IRRIGATION =           0.0000             SW IRRIGATION =           0.0000
        SYSTEM LOSSES GW =           0.0000          SYSTEM LOSSES GW =           0.0000
        SYSTEM LOSSES SW =           0.0000          SYSTEM LOSSES SW =           0.0000

                TOTAL IN =   137539760.0000                  TOTAL IN =          59.6467

          OUT:                                     OUT:
          ----                                     ----
               AG WELLS  =           0.0000                 AG WELLS  =           0.0000
      DIVERSION SEGMENTS =           0.0000        DIVERSION SEGMENTS =           0.0000
           GW IRRIGATION =   137539760.0000             GW IRRIGATION =          59.6467
           SW IRRIGATION =           0.0000             SW IRRIGATION =           0.0000
        SYSTEM LOSSES GW =           0.0000          SYSTEM LOSSES GW =           0.0000
        SYSTEM LOSSES SW =           0.0000          SYSTEM LOSSES SW =           0.0000

               TOTAL OUT =   137539760.0000                 TOTAL OUT =          59.6467

                IN - OUT =           0.0000                  IN - OUT =           0.0000

     PERCENT DISCREPANCY =           0.00         PERCENT DISCREPANCY =           0.00



1
  VOLUMETRIC BUDGET FOR ENTIRE MODEL AT END OF TIME STEP   10, STRESS PERIOD   8
  ------------------------------------------------------------------------------

     CUMULATIVE VOLUMES      L**3       RATES FOR THIS TIME STEP      L**3/T
     ------------------                 ------------------------

           IN:                                      IN:
           ---                                      ---
             STORAGE     =   143603808.0000               STORAGE     =          58.9795
       CONSTANT HEAD     =           0.0000         CONSTANT HEAD     =           0.0000
     HEAD DEP BOUNDS     =     4779378.0000       HEAD DEP BOUNDS     =           0.2855
      STREAM LEAKAGE     =   213829488.0000        STREAM LEAKAGE     =          13.2619
        UZF RECHARGE     =       73223.9531          UZF RECHARGE     =           0.0000
               GW ET     =           0.0000                 GW ET     =           0.0000
     SURFACE LEAKAGE     =           0.0000       SURFACE LEAKAGE     =           0.0000
           AG WELLS      =           0.0000             AG WELLS      =           0.0000

                TOTAL IN =   362285888.0000                  TOTAL IN =          72.5269

          OUT:                                     OUT:
          ----                                     ----
             STORAGE     =    43328972.0000               STORAGE     =           1.3987
       CONSTANT HEAD     =           0.0000         CONSTANT HEAD     =           0.0000
     HEAD DEP BOUNDS     =     4936608.5000       HEAD DEP BOUNDS     =           0.2992
      STREAM LEAKAGE     =   169004992.0000        STREAM LEAKAGE     =           9.5913
        UZF RECHARGE     =           0.0000          UZF RECHARGE     =           0.0000
               GW ET     =     7478525.5000                 GW ET     =           1.5913
     SURFACE LEAKAGE     =           0.0000       SURFACE LEAKAGE     =           0.0000
           AG WELLS      =   137539760.0000             AG WELLS      =          59.6467

               TOTAL OUT =   362288864.0000                 TOTAL OUT =          72.5271

                IN - OUT =       -2976.0000                  IN - OUT =      -2.0599E-04

     PERCENT DISCREPANCY =          -0.00         PERCENT DISCREPANCY =          -0.00






         TIME SUMMARY AT END OF TIME STEP   10 IN STRESS PERIOD    8
                    SECONDS     MINUTES      HOURS       DAYS        YEARS
                    -----------------------------------------------------------
   TIME STEP LENGTH  87667.      1461.1      24.352      1.0147     2.77799E-03
 STRESS PERIOD TIME 8.76667E+05  14611.      243.52      10.147     2.77799E-02
         TOTAL TIME 1.67431E+07 2.79052E+05  4650.9      193.79     0.53056    
1
 
 SOLVING FOR HEAD 
                                                   Max.-Head-Change                         Max.-Flux-Residual
  Residual-Control   Outer-Iter.   Inner-Iter.     Column Row Layer    Maximum-Head-Change  Column Row Layer    Maximum-Flux-Residual          L2-NORM 
          0                 1           2             4    7     1      -0.1548982912E+00       4    7    1        -0.8119664571E+01      0.1792782153E+02
          0                 2           2             4    7     1       0.1506701497E-01       4    7    1         0.8119420400E+00      0.1792751932E+01
          0                 3           2             4    7     1      -0.1026011430E-02       4    7    1        -0.5683619838E-01      0.1254928332E+00
          0                 4           1             4    7     1       0.4082593820E-04       4    7    1         0.2324602669E-02      0.5132659703E-02

    ------------------------------------------------
       NWT REQUIRED            4 OUTER ITERATIONS 
       AND A TOTAL OF          7 INNER ITERATIONS.
    ------------------------------------------------

 NO OUTPUT CONTROL FOR STRESS PERIOD    8   TIME STEP   11
 
 SOLVING FOR HEAD 
                                                   Max.-Head-Change                         Max.-Flux-Residual
  Residual-Control   Outer-Iter.   Inner-Iter.     Column Row Layer    Maximum-Head-Change  Column Row Layer    Maximum-Flux-Residual          L2-NORM 
          0                 1           2             4    7     1      -0.1535147303E+00       4    7    1        -0.8048362778E+01      0.1772370356E+02
          0                 2           2             4    7     1       0.1493243035E-01       4    7    1         0.8048117254E+00      0.1772340905E+01
          0                 3           2             4    7     1      -0.1016846735E-02       4    7    1        -0.5633707742E-01      0.1240640841E+00
          0                 4           1             4    7     1       0.4046126657E-04       4    7    1         0.2304188588E-02      0.5074219433E-02

    ------------------------------------------------
       NWT REQUIRED            4 OUTER ITERATIONS 
       AND A TOTAL OF          7 INNER ITERATIONS.
    ------------------------------------------------

 NO OUTPUT CONTROL FOR STRESS PERIOD    8   TIME STEP   12
 
 SOLVING FOR HEAD 
                                                   Max.-Head-Change                         Max.-Flux-Residual
  Residual-Control   Outer-Iter.   Inner-Iter.     Column Row Layer    Maximum-Head-Change  Column Row Layer    Maximum-Flux-Residual          L2-NORM 
          0                 1           2             4    7     1      -0.1521220722E+00       4    7    1        -0.7976458012E+01      0.1752679365E+02
          0                 2           2             4    7     1       0.1479696166E-01       4    7    1         0.7976211711E+00      0.1752650600E+01
          0                 3           2             4    7     1      -0.1007621829E-02       4    7    1        -0.5583373913E-01      0.1226857828E+00
          0                 4           1             4    7     1       0.4009419926E-04       4    7    1         0.2283602037E-02      0.5017851150E-02

    ------------------------------------------------
       NWT REQUIRED            4 OUTER ITERATIONS 
       AND A TOTAL OF          7 INNER ITERATIONS.
    ------------------------------------------------

 NO OUTPUT CONTROL FOR STRESS PERIOD    8   TIME STEP   13
 
 SOLVING FOR HEAD 
                                                   Max.-Head-Change                         Max.-Flux-Residual
  Residual-Control   Outer-Iter.   Inner-Iter.     Column Row Layer    Maximum-Head-Change  Column Row Layer    Maximum-Flux-Residual          L2-NORM 
          0                 1           2             4    7     1      -0.1507229722E+00       4    7    1        -0.7904098270E+01      0.1733667120E+02
          0                 2           2             4    7     1       0.1466086712E-01       4    7    1         0.7903851711E+00      0.1733638890E+01
          0                 3           2             4    7     1      -0.9983542981E-03       4    7    1        -0.5532721914E-01      0.1213549780E+00
          0                 4           1             4    7     1       0.3972543565E-04       4    7    1         0.2262885338E-02      0.4963416542E-02

    ------------------------------------------------
       NWT REQUIRED            4 OUTER ITERATIONS 
       AND A TOTAL OF          7 INNER ITERATIONS.
    ------------------------------------------------

 NO OUTPUT CONTROL FOR STRESS PERIOD    8   TIME STEP   14
 
 SOLVING FOR HEAD 
                                                   Max.-Head-Change                         Max.-Flux-Residual
  Residual-Control   Outer-Iter.   Inner-Iter.     Column Row Layer    Maximum-Head-Change  Column Row Layer    Maximum-Flux-Residual          L2-NORM 
          0                 1           2             4    7     1      -0.1493194148E+00       4    7    1        -0.7831395379E+01      0.1715294440E+02
          0                 2           2             4    7     1       0.1452433968E-01       4    7    1         0.7831149033E+00      0.1715266899E+01
          0                 3           2             4    7     1      -0.9890572820E-03       4    7    1        -0.5481830000E-01      0.1200689414E+00
          0                 4           1             4    7     1       0.3935549832E-04       4    7    1         0.2242070515E-02      0.4910822738E-02

    ------------------------------------------------
       NWT REQUIRED            4 OUTER ITERATIONS 
       AND A TOTAL OF          7 INNER ITERATIONS.
    ------------------------------------------------

 OUTPUT CONTROL FOR STRESS PERIOD    8   TIME STEP   15
    PRINT BUDGET
    SAVE BUDGET
 UBDSV1 SAVING "         STORAGE" ON UNIT 102 AT TIME STEP 15, STRESS PERIOD   8
 UBDSV2 SAVING "   CONSTANT HEAD" ON UNIT 102 AT TIME STEP 15, STRESS PERIOD   8
 UBDSV1 SAVING "FLOW RIGHT FACE " ON UNIT 102 AT TIME STEP 15, STRESS PERIOD   8
 UBDSV1 SAVING "FLOW FRONT FACE " ON UNIT 102 AT TIME STEP 15, STRESS PERIOD   8

  HEAD DEP BOUNDS   PERIOD    8   STEP    15
 BOUNDARY      1   LAYER   1   ROW    13   COL     1   RATE   -0.298996    
 BOUNDARY      2   LAYER   1   ROW    14   COL     9   RATE    0.285478    



 STREAM LISTING     PERIOD      8   STEP       15

 LAYER ROW COL. STREAM  RCH.  FLOW INTO     FLOW TO   FLOW OUT OF   OVRLND.     DIRECT     STREAM       STREAM     STREAM     STREAM   STREAMBED  STREAMBED
                SEG.NO.  NO.  STRM. RCH.    AQUIFER    STRM. RCH.    RUNOFF     PRECIP       ET          HEAD       DEPTH      WIDTH   CONDCTNC.   GRADIENT

   1    1    1     1     1    7.4999E+01  4.2231E-01   7.4577E+01  0.000E+00  0.000E+00  0.000E+00  1.09475E+03  1.698E+00  1.998E+01  8.990E-02  1.566E+00
   1    2    2     1     2    7.4577E+01  6.5422E-01   7.3923E+01  0.000E+00  0.000E+00  0.000E+00  1.08975E+03  1.692E+00  1.992E+01  1.394E-01  1.564E+00
   1    3    3     1     3    7.3923E+01  5.5813E-01   7.3365E+01  0.000E+00  0.000E+00  0.000E+00  1.08410E+03  1.685E+00  1.985E+01  1.191E-01  1.562E+00
   1    3    4     1     4    7.3365E+01  5.1411E-01   7.2851E+01  0.000E+00  0.000E+00  0.000E+00  1.07909E+03  1.679E+00  1.980E+01  1.099E-01  1.560E+00
   1    4    5     2     1    7.0851E+01  4.0967E-01   7.0441E+01  0.000E+00  0.000E+00  0.000E+00  1.07419E+03  2.252E+00  1.200E+01  7.800E-02  1.751E+00
   1    5    6     2     2    7.0441E+01  3.1471E-01   7.0126E+01  0.000E+00  0.000E+00  0.000E+00  1.06875E+03  2.245E+00  1.200E+01  6.000E-02  1.748E+00
   1    6    6     2     3    7.0126E+01  3.1435E-01   6.9812E+01  0.000E+00  0.000E+00  0.000E+00  1.06403E+03  2.239E+00  1.200E+01  6.000E-02  1.746E+00
   1    7    6     2     4    6.9812E+01  3.1399E-01   6.9498E+01  0.000E+00  0.000E+00  0.000E+00  1.05931E+03  2.233E+00  1.200E+01  6.000E-02  1.744E+00
   1    8    6     2     5    6.9498E+01  3.1363E-01   6.9184E+01  0.000E+00  0.000E+00  0.000E+00  1.05459E+03  2.227E+00  1.200E+01  6.000E-02  1.742E+00
   1    3    5     3     1    2.0000E+00  2.8252E-01   1.7175E+00  0.000E+00  0.000E+00  0.000E+00  1.07555E+03  1.909E+00  9.636E+00  7.227E-02  1.955E+00
   1    3    6     3     2    1.7175E+00  2.4905E-01   1.4684E+00  0.000E+00  0.000E+00  0.000E+00  1.07264E+03  1.727E+00  8.909E+00  6.682E-02  1.864E+00
   1    3    7     3     3    1.4684E+00  1.9718E-01   1.2712E+00  0.000E+00  0.000E+00  0.000E+00  1.06987E+03  1.555E+00  8.218E+00  5.547E-02  1.777E+00
   1    4    8     3     4    1.2712E+00  2.2567E-01   1.0456E+00  0.000E+00  0.000E+00  0.000E+00  1.06682E+03  1.364E+00  7.455E+00  6.709E-02  1.682E+00
   1    5    8     3     5    1.0456E+00  1.5790E-01   8.8768E-01  0.000E+00  0.000E+00  0.000E+00  1.06362E+03  1.164E+00  6.655E+00  4.991E-02  1.582E+00
   1    6    8     3     6    8.8768E-01  5.5980E-02   8.3170E-01  0.000E+00  0.000E+00  0.000E+00  1.06158E+03  1.036E+00  6.145E+00  1.844E-02  1.518E+00
   1    5   10     4     1    1.0000E+01  9.0919E-02   9.9091E+00  0.000E+00  0.000E+00  0.000E+00  1.07836E+03  6.368E-01  1.000E+01  2.500E-02  1.212E+00
   1    5    9     4     2    9.9091E+00  1.8158E-01   9.7275E+00  0.000E+00  0.000E+00  0.000E+00  1.07154E+03  6.315E-01  1.000E+01  5.000E-02  1.211E+00
   1    6    8     4     3    9.7275E+00  1.2689E-01   9.6006E+00  0.000E+00  0.000E+00  0.000E+00  1.06381E+03  6.256E-01  1.000E+01  3.500E-02  1.209E+00
   1    6    8     5     1    1.0432E+01  2.2686E-01   1.0205E+01  0.000E+00  0.000E+00  0.000E+00  1.05868E+03  6.790E-01  1.542E+01  6.166E-02  1.226E+00
   1    7    7     5     2    1.0205E+01  2.7894E-01   9.9265E+00  0.000E+00  0.000E+00  0.000E+00  1.05417E+03  6.732E-01  1.519E+01  7.594E-02  1.224E+00
   1    8    7     5     3    9.9265E+00  1.9221E-01   9.7343E+00  0.000E+00  0.000E+00  0.000E+00  1.04992E+03  6.676E-01  1.497E+01  5.241E-02  1.223E+00
   1    8    6     5     4    9.7343E+00  1.3577E-01   9.5985E+00  0.000E+00  0.000E+00  0.000E+00  1.04691E+03  6.637E-01  1.482E+01  3.706E-02  1.221E+00
   1    9    6     6     1    7.8783E+01  3.2569E-01   7.8457E+01  0.000E+00  0.000E+00  0.000E+00  1.04516E+03  2.428E+00  1.200E+01  6.000E-02  1.809E+00
   1   10    7     6     2    7.8457E+01  3.2533E-01   7.8132E+01  0.000E+00  0.000E+00  0.000E+00  1.04060E+03  2.422E+00  1.200E+01  6.000E-02  1.807E+00
   1   11    7     6     3    7.8132E+01  3.2497E-01   7.7807E+01  0.000E+00  0.000E+00  0.000E+00  1.03605E+03  2.416E+00  1.200E+01  6.000E-02  1.805E+00
   1   12    7     6     4    7.7807E+01  3.2461E-01   7.7482E+01  0.000E+00  0.000E+00  0.000E+00  1.03150E+03  2.410E+00  1.200E+01  6.000E-02  1.803E+00
   1   13    7     6     5    7.7482E+01  2.5845E-02   7.7456E+01  0.000E+00  0.000E+00  0.000E+00  1.02832E+03  2.407E+00  1.200E+01  2.400E-02  3.590E-01
   1   14    9     7     1    1.5000E+02  1.3317E+00   1.4867E+02  0.000E+00  0.000E+00  0.000E+00  1.03987E+03  2.288E+00  5.529E+01  5.593E-01  7.937E-01
   1   13    8     7     2    1.4867E+02  1.8002E+00   1.4687E+02  0.000E+00  0.000E+00  0.000E+00  1.03478E+03  2.279E+00  5.526E+01  6.148E-01  9.761E-01
   1   13    7     7     3    1.4687E+02  1.3690E+00   1.4550E+02  0.000E+00  0.000E+00  0.000E+00  1.02969E+03  2.271E+00  5.522E+01  5.585E-01  8.171E-01
   1   13    6     8     1    2.2296E+02  1.0166E+00   2.2194E+02  0.000E+00  0.000E+00  0.000E+00  1.02514E+03  3.265E+00  4.735E+01  4.825E-01  7.023E-01
   1   13    5     8     2    2.2194E+02  2.0003E-01   2.2174E+02  0.000E+00  0.000E+00  0.000E+00  1.01889E+03  3.262E+00  4.730E+01  4.820E-01  1.383E-01
   1   13    4     8     3    2.2174E+02 -1.9174E+00   2.2366E+02  0.000E+00  0.000E+00  0.000E+00  1.01264E+03  3.267E+00  4.737E+01  4.827E+00 -1.324E-01
   1   13    3     8     4    2.2366E+02 -3.0702E+00   2.2673E+02  0.000E+00  0.000E+00  0.000E+00  1.00641E+03  3.280E+00  4.757E+01  4.847E+00 -2.111E-01
   1   13    2     8     5    2.2673E+02 -2.5433E+00   2.2927E+02  0.000E+00  0.000E+00  0.000E+00  1.00017E+03  3.296E+00  4.779E+01  4.870E+00 -1.741E-01
   1   13    1     8     6    2.2927E+02 -2.0098E+00   2.3128E+02  0.000E+00  0.000E+00  0.000E+00  9.95183E+02  3.308E+00  4.797E+01  2.933E+00 -2.284E-01



 UBDSV3 SAVING "           GW ET" ON UNIT  61 AT TIME STEP 15, STRESS PERIOD   8
 UBDSV3 SAVING "    UZF RECHARGE" ON UNIT  61 AT TIME STEP 15, STRESS PERIOD   8
 UBDSV3 SAVING " SURFACE LEAKAGE" ON UNIT  61 AT TIME STEP 15, STRESS PERIOD   8
 UBDSV3 SAVING "       HORT+DUNN" ON UNIT  61 AT TIME STEP 15, STRESS PERIOD   8
 UBDSV3 SAVING "  STORAGE CHANGE" ON UNIT  61 AT TIME STEP 15, STRESS PERIOD   8


UNSATURATED ZONE PACKAGE VOLUMETRIC BUDGET FOR  TIME STEP    15 STRESS PERIOD    8
  ------------------------------------------------------------------------------



     CUMULATIVE VOLUMES      L**3       RATES FOR THIS TIME STEP      L**3/T
     ------------------                 ------------------------

           IN:                                      IN:
           ---                                      ---
        INFILTRATION =   239106037.0208          INFILTRATION =          64.0605

          OUT:                                     OUT:
          ----                                     ----
              UZF ET =   220627736.5042                UZF ET =          64.1075
        UZF RECHARGE =       73224.0000          UZF RECHARGE =       0.0000E+00

            IN - OUT =    18405076.5166              IN - OUT =      -4.6991E-02

          STORAGE:                                 STORAGE:
          --------                                 --------
      STORAGE CHANGE =    18405072.4420        STORAGE CHANGE =      -4.6992E-02

 PERCENT DISCREPANCY IS DIFFERENCE BETWEEN IN-OUT MINUS CHANGE IN STORAGE
 DIVIDED BY THE AVERAGE OF IN AND OUT TIMES 100

 PERCENT DISCREPANCY =           0.00     PERCENT DISCREPANCY =           0.00






 

            AG WELLS      PERIOD    8   STEP  15
 AG WELL      1   LAYER   1   ROW     6   COL     4   RATE    -9.97100    
 AG WELL      2   LAYER   1   ROW     6   COL     5   RATE    -9.95959    
 AG WELL      3   LAYER   1   ROW     7   COL     4   RATE    -9.96848    
 AG WELL      4   LAYER   1   ROW     7   COL     5   RATE    -9.94161    
 AG WELL      5   LAYER   1   ROW     8   COL     4   RATE    -9.96848    
 AG WELL      6   LAYER   1   ROW     8   COL     5   RATE    -9.84384    
 
 

        GW IRRIGATION     PERIOD    8   STEP  15
 AG WELL      1   ROW     6   COL     4   RATE     9.97100    
 AG WELL      2   ROW     6   COL     5   RATE     9.95959    
 AG WELL      3   ROW     7   COL     4   RATE     9.96848    
 AG WELL      4   ROW     7   COL     5   RATE     9.94161    
 AG WELL      5   ROW     8   COL     4   RATE     9.96848    
 AG WELL      6   ROW     8   COL     5   RATE     9.84384    
 
1
  VOLUMETRIC BUDGET FOR AGRICULTURAL FIELDS AT TIME STEP   15, STRESS PERIOD   8
  ------------------------------------------------------------------------------

     CUMULATIVE VOLUMES      L**3       RATES FOR THIS TIME STEP      L**3/T
     ------------------                 ------------------------

           IN:                                      IN:
           ---                                      ---
               AG WELLS  =   163686592.0000                 AG WELLS  =          59.6530
      DIVERSION SEGMENTS =           0.0000        DIVERSION SEGMENTS =           0.0000
           GW IRRIGATION =           0.0000             GW IRRIGATION =           0.0000
           SW IRRIGATION =           0.0000             SW IRRIGATION =           0.0000
        SYSTEM LOSSES GW =           0.0000          SYSTEM LOSSES GW =           0.0000
        SYSTEM LOSSES SW =           0.0000          SYSTEM LOSSES SW =           0.0000

                TOTAL IN =   163686592.0000                  TOTAL IN =          59.6530

          OUT:                                     OUT:
          ----                                     ----
               AG WELLS  =           0.0000                 AG WELLS  =           0.0000
      DIVERSION SEGMENTS =           0.0000        DIVERSION SEGMENTS =           0.0000
           GW IRRIGATION =   163686592.0000             GW IRRIGATION =          59.6530
           SW IRRIGATION =           0.0000             SW IRRIGATION =           0.0000
        SYSTEM LOSSES GW =           0.0000          SYSTEM LOSSES GW =           0.0000
        SYSTEM LOSSES SW =           0.0000          SYSTEM LOSSES SW =           0.0000

               TOTAL OUT =   163686592.0000                 TOTAL OUT =          59.6530

                IN - OUT =           0.0000                  IN - OUT =           0.0000

     PERCENT DISCREPANCY =           0.00         PERCENT DISCREPANCY =           0.00



1
  VOLUMETRIC BUDGET FOR ENTIRE MODEL AT END OF TIME STEP   15, STRESS PERIOD   8
  ------------------------------------------------------------------------------

     CUMULATIVE VOLUMES      L**3       RATES FOR THIS TIME STEP      L**3/T
     ------------------                 ------------------------

           IN:                                      IN:
           ---                                      ---
             STORAGE     =   169412208.0000               STORAGE     =          58.8251
       CONSTANT HEAD     =           0.0000         CONSTANT HEAD     =           0.0000
     HEAD DEP BOUNDS     =     4904513.0000       HEAD DEP BOUNDS     =           0.2855
      STREAM LEAKAGE     =   219642272.0000        STREAM LEAKAGE     =          13.2606
        UZF RECHARGE     =       73223.9531          UZF RECHARGE     =           0.0000
               GW ET     =           0.0000                 GW ET     =           0.0000
     SURFACE LEAKAGE     =           0.0000       SURFACE LEAKAGE     =           0.0000
           AG WELLS      =           0.0000             AG WELLS      =           0.0000

                TOTAL IN =   394032192.0000                  TOTAL IN =          72.3712

          OUT:                                     OUT:
          ----                                     ----
             STORAGE     =    43923648.0000               STORAGE     =           1.3299
       CONSTANT HEAD     =           0.0000         CONSTANT HEAD     =           0.0000
     HEAD DEP BOUNDS     =     5067700.0000       HEAD DEP BOUNDS     =           0.2990
      STREAM LEAKAGE     =   173194768.0000        STREAM LEAKAGE     =           9.5407
        UZF RECHARGE     =           0.0000          UZF RECHARGE     =           0.0000
               GW ET     =     8162540.5000                 GW ET     =           1.5489
     SURFACE LEAKAGE     =           0.0000       SURFACE LEAKAGE     =           0.0000
           AG WELLS      =   163686592.0000             AG WELLS      =          59.6530

               TOTAL OUT =   394035264.0000                 TOTAL OUT =          72.3714

                IN - OUT =       -3072.0000                  IN - OUT =      -2.1362E-04

     PERCENT DISCREPANCY =          -0.00         PERCENT DISCREPANCY =          -0.00






         TIME SUMMARY AT END OF TIME STEP   15 IN STRESS PERIOD    8
                    SECONDS     MINUTES      HOURS       DAYS        YEARS
                    -----------------------------------------------------------
   TIME STEP LENGTH  87667.      1461.1      24.352      1.0147     2.77799E-03
 STRESS PERIOD TIME 1.31500E+06  21917.      365.28      15.220     4.16698E-02
         TOTAL TIME 1.71814E+07 2.86357E+05  4772.6      198.86     0.54445    
1
 
 SOLVING FOR HEAD 
                                                   Max.-Head-Change                         Max.-Flux-Residual
  Residual-Control   Outer-Iter.   Inner-Iter.     Column Row Layer    Maximum-Head-Change  Column Row Layer    Maximum-Flux-Residual          L2-NORM 
          0                 1           2             4    7     1      -0.1479134218E+00       4    7    1        -0.7758462436E+01      0.1697525112E+02
          0                 2           2             4    7     1       0.1438757595E-01       4    7    1         0.7758216728E+00      0.1697498139E+01
          0                 3           2             4    7     1      -0.9797441686E-03       4    7    1        -0.5430777302E-01      0.1188251290E+00
          0                 4           1             4    7     1       0.3898492088E-04       4    7    1         0.2221189927E-02      0.4859948123E-02

    ------------------------------------------------
       NWT REQUIRED            4 OUTER ITERATIONS 
       AND A TOTAL OF          7 INNER ITERATIONS.
    ------------------------------------------------

 NO OUTPUT CONTROL FOR STRESS PERIOD    8   TIME STEP   16
 
 SOLVING FOR HEAD 
                                                   Max.-Head-Change                         Max.-Flux-Residual
  Residual-Control   Outer-Iter.   Inner-Iter.     Column Row Layer    Maximum-Head-Change  Column Row Layer    Maximum-Flux-Residual          L2-NORM 
          0                 1           2             4    7     1      -0.1465068346E+00       4    7    1        -0.7685403327E+01      0.1680326133E+02
          0                 2           2             4    7     1       0.1425075499E-01       4    7    1         0.7685158639E+00      0.1680299714E+01
          0                 3           2             4    7     1      -0.9704271528E-03       4    7    1        -0.5379636523E-01      0.1176212421E+00
          0                 4           1             4    7     1       0.3861418825E-04       4    7    1         0.2200273334E-02      0.4810710361E-02

    ------------------------------------------------
       NWT REQUIRED            4 OUTER ITERATIONS 
       AND A TOTAL OF          7 INNER ITERATIONS.
    ------------------------------------------------

 NO OUTPUT CONTROL FOR STRESS PERIOD    8   TIME STEP   17
 
 SOLVING FOR HEAD 
                                                   Max.-Head-Change                         Max.-Flux-Residual
  Residual-Control   Outer-Iter.   Inner-Iter.     Column Row Layer    Maximum-Head-Change  Column Row Layer    Maximum-Flux-Residual          L2-NORM 
          0                 1           2             4    7     1      -0.1451013501E+00       4    7    1        -0.7612313526E+01      0.1663667190E+02
          0                 2           2             4    7     1       0.1411404179E-01       4    7    1         0.7612070201E+00      0.1663641318E+01
          0                 3           2             4    7     1      -0.9611174694E-03       4    7    1        -0.5328474464E-01      0.1164551569E+00
          0                 4           1             4    7     1       0.3824374712E-04       4    7    1         0.2179348018E-02      0.4763021225E-02

    ------------------------------------------------
       NWT REQUIRED            4 OUTER ITERATIONS 
       AND A TOTAL OF          7 INNER ITERATIONS.
    ------------------------------------------------

 NO OUTPUT CONTROL FOR STRESS PERIOD    8   TIME STEP   18
 
 SOLVING FOR HEAD 
                                                   Max.-Head-Change                         Max.-Flux-Residual
  Residual-Control   Outer-Iter.   Inner-Iter.     Column Row Layer    Maximum-Head-Change  Column Row Layer    Maximum-Flux-Residual          L2-NORM 
          0                 1           2             4    7     1      -0.1436985257E+00       4    7    1        -0.7539281015E+01      0.1647519655E+02
          0                 2           2             4    7     1       0.1397758779E-01       4    7    1         0.7539039360E+00      0.1647494318E+01
          0                 3           2             4    7     1      -0.9518254333E-03       4    7    1        -0.5277352696E-01      0.1153248663E+00
          0                 4           1             4    7     1       0.3787400885E-04       4    7    1         0.2158439201E-02      0.4716790195E-02

    ------------------------------------------------
       NWT REQUIRED            4 OUTER ITERATIONS 
       AND A TOTAL OF          7 INNER ITERATIONS.
    ------------------------------------------------

 NO OUTPUT CONTROL FOR STRESS PERIOD    8   TIME STEP   19
 
 SOLVING FOR HEAD 
                                                   Max.-Head-Change                         Max.-Flux-Residual
  Residual-Control   Outer-Iter.   Inner-Iter.     Column Row Layer    Maximum-Head-Change  Column Row Layer    Maximum-Flux-Residual          L2-NORM 
          0                 1           2             4    7     1      -0.1422999238E+00       4    7    1        -0.7466393879E+01      0.1631858031E+02
          0                 2           2             4    7     1       0.1384154492E-01       4    7    1         0.7466154166E+00      0.1631833220E+01
          0                 3           2             4    7     1      -0.9425613893E-03       4    7    1        -0.5226332854E-01      0.1142285891E+00
          0                 4           1             4    7     1       0.3750538397E-04       4    7    1         0.2137572073E-02      0.4671955922E-02

    ------------------------------------------------
       NWT REQUIRED            4 OUTER ITERATIONS 
       AND A TOTAL OF          7 INNER ITERATIONS.
    ------------------------------------------------

 NO OUTPUT CONTROL FOR STRESS PERIOD    8   TIME STEP   20
 
 SOLVING FOR HEAD 
                                                   Max.-Head-Change                         Max.-Flux-Residual
  Residual-Control   Outer-Iter.   Inner-Iter.     Column Row Layer    Maximum-Head-Change  Column Row Layer    Maximum-Flux-Residual          L2-NORM 
          0                 1           2             4    7     1      -0.1409065761E+00       4    7    1        -0.7393711134E+01      0.1616658083E+02
          0                 2           2             4    7     1       0.1370601350E-01       4    7    1         0.7393473607E+00      0.1616633789E+01
          0                 3           2             4    7     1      -0.9333321695E-03       4    7    1        -0.5175456232E-01      0.1131646256E+00
          0                 4           1             4    7     1       0.3713814489E-04       4    7    1         0.2116763528E-02      0.4628436897E-02

    ------------------------------------------------
       NWT REQUIRED            4 OUTER ITERATIONS 
       AND A TOTAL OF          7 INNER ITERATIONS.
    ------------------------------------------------

 NO OUTPUT CONTROL FOR STRESS PERIOD    8   TIME STEP   21
 
 SOLVING FOR HEAD 
                                                   Max.-Head-Change                         Max.-Flux-Residual
  Residual-Control   Outer-Iter.   Inner-Iter.     Column Row Layer    Maximum-Head-Change  Column Row Layer    Maximum-Flux-Residual          L2-NORM 
          0                 1           2             4    7     1      -0.1395199315E+00       4    7    1        -0.7321314644E+01      0.1601896853E+02
          0                 2           2             4    7     1       0.1357113442E-01       4    7    1         0.7321079515E+00      0.1601873069E+01
          0                 3           2             4    7     1      -0.9241473686E-03       4    7    1        -0.5124780120E-01      0.1121313713E+00
          0                 4           1             4    7     1       0.3677267335E-04       4    7    1         0.2096036965E-02      0.4586177781E-02

    ------------------------------------------------
       NWT REQUIRED            4 OUTER ITERATIONS 
       AND A TOTAL OF          7 INNER ITERATIONS.
    ------------------------------------------------

 NO OUTPUT CONTROL FOR STRESS PERIOD    8   TIME STEP   22
 
 SOLVING FOR HEAD 
                                                   Max.-Head-Change                         Max.-Flux-Residual
  Residual-Control   Outer-Iter.   Inner-Iter.     Column Row Layer    Maximum-Head-Change  Column Row Layer    Maximum-Flux-Residual          L2-NORM 
          0                 1           2             4    7     1      -0.1381409708E+00       4    7    1        -0.7249260405E+01      0.1587553919E+02
          0                 2           2             4    7     1       0.1343700303E-01       4    7    1         0.7249027861E+00      0.1587530631E+01
          0                 3           2             4    7     1      -0.9150134805E-03       4    7    1        -0.5074343697E-01      0.1111273995E+00
          0                 4           1             4    7     1       0.3640922738E-04       4    7    1         0.2075408446E-02      0.4545115312E-02

    ------------------------------------------------
       NWT REQUIRED            4 OUTER ITERATIONS 
       AND A TOTAL OF          7 INNER ITERATIONS.
    ------------------------------------------------

 NO OUTPUT CONTROL FOR STRESS PERIOD    8   TIME STEP   23
 
 SOLVING FOR HEAD 
                                                   Max.-Head-Change                         Max.-Flux-Residual
  Residual-Control   Outer-Iter.   Inner-Iter.     Column Row Layer    Maximum-Head-Change  Column Row Layer    Maximum-Flux-Residual          L2-NORM 
          0                 1           2             4    7     1      -0.1367707899E+00       4    7    1        -0.7177611056E+01      0.1573609532E+02
          0                 2           2             4    7     1       0.1330372593E-01       4    7    1         0.7177381262E+00      0.1573586738E+01
          0                 3           2             4    7     1      -0.9059377637E-03       4    7    1        -0.5024190795E-01      0.1101513243E+00
          0                 4           1             4    7     1       0.3604809650E-04       4    7    1         0.2054895895E-02      0.4505193873E-02

    ------------------------------------------------
       NWT REQUIRED            4 OUTER ITERATIONS 
       AND A TOTAL OF          7 INNER ITERATIONS.
    ------------------------------------------------

 NO OUTPUT CONTROL FOR STRESS PERIOD    8   TIME STEP   24
 
 SOLVING FOR HEAD 
                                                   Max.-Head-Change                         Max.-Flux-Residual
  Residual-Control   Outer-Iter.   Inner-Iter.     Column Row Layer    Maximum-Head-Change  Column Row Layer    Maximum-Flux-Residual          L2-NORM 
          0                 1           2             4    7     1      -0.1354101243E+00       4    7    1        -0.7106408787E+01      0.1560046643E+02
          0                 2           2             4    7     1       0.1317137461E-01       4    7    1         0.7106181884E+00      0.1560024332E+01
          0                 3           2             4    7     1      -0.8969250866E-03       4    7    1        -0.4974350935E-01      0.1092019488E+00
          0                 4           1             4    7     1       0.3568947357E-04       4    7    1         0.2034511370E-02      0.4466363212E-02

    ------------------------------------------------
       NWT REQUIRED            4 OUTER ITERATIONS 
       AND A TOTAL OF          7 INNER ITERATIONS.
    ------------------------------------------------

 NO OUTPUT CONTROL FOR STRESS PERIOD    8   TIME STEP   25
 
 SOLVING FOR HEAD 
                                                   Max.-Head-Change                         Max.-Flux-Residual
  Residual-Control   Outer-Iter.   Inner-Iter.     Column Row Layer    Maximum-Head-Change  Column Row Layer    Maximum-Flux-Residual          L2-NORM 
          0                 1           2             4    7     1      -0.1340599277E+00       4    7    1        -0.7035708269E+01      0.1546846185E+02
          0                 2           2             4    7     1       0.1304004181E-01       4    7    1         0.7035484378E+00      0.1546824346E+01
          0                 3           2             4    7     1      -0.8879817663E-03       4    7    1        -0.4924862376E-01      0.1082779483E+00
          0                 4           1             4    7     1       0.3533361105E-04       4    7    1         0.2014270532E-02      0.4428572132E-02

    ------------------------------------------------
       NWT REQUIRED            4 OUTER ITERATIONS 
       AND A TOTAL OF          7 INNER ITERATIONS.
    ------------------------------------------------

 NO OUTPUT CONTROL FOR STRESS PERIOD    8   TIME STEP   26
 
 SOLVING FOR HEAD 
                                                   Max.-Head-Change                         Max.-Flux-Residual
  Residual-Control   Outer-Iter.   Inner-Iter.     Column Row Layer    Maximum-Head-Change  Column Row Layer    Maximum-Flux-Residual          L2-NORM 
          0                 1           2             4    7     1      -0.1327207967E+00       4    7    1        -0.6965544320E+01      0.1533993796E+02
          0                 2           2             4    7     1       0.1290978555E-01       4    7    1         0.6965323545E+00      0.1533972421E+01
          0                 3           2             4    7     1      -0.8791117520E-03       4    7    1        -0.4875749476E-01      0.1073783106E+00
          0                 4           1             4    7     1       0.3498066494E-04       4    7    1         0.1994183353E-02      0.4391778149E-02

    ------------------------------------------------
       NWT REQUIRED            4 OUTER ITERATIONS 
       AND A TOTAL OF          7 INNER ITERATIONS.
    ------------------------------------------------

 NO OUTPUT CONTROL FOR STRESS PERIOD    8   TIME STEP   27
 
 SOLVING FOR HEAD 
                                                   Max.-Head-Change                         Max.-Flux-Residual
  Residual-Control   Outer-Iter.   Inner-Iter.     Column Row Layer    Maximum-Head-Change  Column Row Layer    Maximum-Flux-Residual          L2-NORM 
          0                 1           2             4    7     1      -0.1313936101E+00       4    7    1        -0.6895966959E+01      0.1521475319E+02
          0                 2           2             4    7     1       0.1278069128E-01       4    7    1         0.6895749386E+00      0.1521454400E+01
          0                 3           2             4    7     1      -0.8703208634E-03       4    7    1        -0.4827047239E-01      0.1065020474E+00
          0                 4           1             4    7     1       0.3463086745E-04       4    7    1         0.1974264118E-02      0.4355938946E-02

    ------------------------------------------------
       NWT REQUIRED            4 OUTER ITERATIONS 
       AND A TOTAL OF          7 INNER ITERATIONS.
    ------------------------------------------------

 NO OUTPUT CONTROL FOR STRESS PERIOD    8   TIME STEP   28
 
 SOLVING FOR HEAD 
                                                   Max.-Head-Change                         Max.-Flux-Residual
  Residual-Control   Outer-Iter.   Inner-Iter.     Column Row Layer    Maximum-Head-Change  Column Row Layer    Maximum-Flux-Residual          L2-NORM 
          0                 1           2             4    7     1      -0.1300788064E+00       4    7    1        -0.6827002663E+01      0.1509274982E+02
          0                 2           2             4    7     1       0.1265280162E-01       4    7    1         0.6826788362E+00      0.1509254508E+01
          0                 3           2             4    7     1      -0.8616120039E-03       4    7    1        -0.4778774194E-01      0.1056480493E+00
          0                 4           1             4    7     1       0.3428433384E-04       4    7    1         0.1954520427E-02      0.4321009293E-02

    ------------------------------------------------
       NWT REQUIRED            4 OUTER ITERATIONS 
       AND A TOTAL OF          7 INNER ITERATIONS.
    ------------------------------------------------

 NO OUTPUT CONTROL FOR STRESS PERIOD    8   TIME STEP   29
 
 SOLVING FOR HEAD 
                                                   Max.-Head-Change                         Max.-Flux-Residual
  Residual-Control   Outer-Iter.   Inner-Iter.     Column Row Layer    Maximum-Head-Change  Column Row Layer    Maximum-Flux-Residual          L2-NORM 
          0                 1           2             4    7     1      -0.1287770293E+00       4    7    1        -0.6758687834E+01      0.1497381947E+02
          0                 2           2             4    7     1       0.1252617917E-01       4    7    1         0.6758476863E+00      0.1497361909E+01
          0                 3           2             4    7     1      -0.8529894363E-03       4    7    1        -0.4730955810E-01      0.1048155638E+00
          0                 4           1             4    7     1       0.3394123413E-04       4    7    1         0.1934962695E-02      0.4286962054E-02

    ------------------------------------------------
       NWT REQUIRED            4 OUTER ITERATIONS 
       AND A TOTAL OF          7 INNER ITERATIONS.
    ------------------------------------------------

 NO OUTPUT CONTROL FOR STRESS PERIOD    8   TIME STEP   30



 STREAM LISTING     PERIOD      8   STEP       30

 LAYER ROW COL. STREAM  RCH.  FLOW INTO     FLOW TO   FLOW OUT OF   OVRLND.     DIRECT     STREAM       STREAM     STREAM     STREAM   STREAMBED  STREAMBED
                SEG.NO.  NO.  STRM. RCH.    AQUIFER    STRM. RCH.    RUNOFF     PRECIP       ET          HEAD       DEPTH      WIDTH   CONDCTNC.   GRADIENT

   1    1    1     1     1    7.4999E+01  4.2231E-01   7.4577E+01  0.000E+00  0.000E+00  0.000E+00  1.09475E+03  1.698E+00  1.998E+01  8.990E-02  1.566E+00
   1    2    2     1     2    7.4577E+01  6.5422E-01   7.3923E+01  0.000E+00  0.000E+00  0.000E+00  1.08975E+03  1.692E+00  1.992E+01  1.394E-01  1.564E+00
   1    3    3     1     3    7.3923E+01  5.5813E-01   7.3365E+01  0.000E+00  0.000E+00  0.000E+00  1.08410E+03  1.685E+00  1.985E+01  1.191E-01  1.562E+00
   1    3    4     1     4    7.3365E+01  5.1411E-01   7.2851E+01  0.000E+00  0.000E+00  0.000E+00  1.07909E+03  1.679E+00  1.980E+01  1.099E-01  1.560E+00
   1    4    5     2     1    7.0851E+01  4.0967E-01   7.0441E+01  0.000E+00  0.000E+00  0.000E+00  1.07419E+03  2.252E+00  1.200E+01  7.800E-02  1.751E+00
   1    5    6     2     2    7.0441E+01  3.1471E-01   7.0126E+01  0.000E+00  0.000E+00  0.000E+00  1.06875E+03  2.245E+00  1.200E+01  6.000E-02  1.748E+00
   1    6    6     2     3    7.0126E+01  3.1435E-01   6.9812E+01  0.000E+00  0.000E+00  0.000E+00  1.06403E+03  2.239E+00  1.200E+01  6.000E-02  1.746E+00
   1    7    6     2     4    6.9812E+01  3.1399E-01   6.9498E+01  0.000E+00  0.000E+00  0.000E+00  1.05931E+03  2.233E+00  1.200E+01  6.000E-02  1.744E+00
   1    8    6     2     5    6.9498E+01  3.1363E-01   6.9184E+01  0.000E+00  0.000E+00  0.000E+00  1.05459E+03  2.227E+00  1.200E+01  6.000E-02  1.742E+00
   1    3    5     3     1    2.0000E+00  2.8252E-01   1.7175E+00  0.000E+00  0.000E+00  0.000E+00  1.07555E+03  1.909E+00  9.636E+00  7.227E-02  1.955E+00
   1    3    6     3     2    1.7175E+00  2.4905E-01   1.4684E+00  0.000E+00  0.000E+00  0.000E+00  1.07264E+03  1.727E+00  8.909E+00  6.682E-02  1.864E+00
   1    3    7     3     3    1.4684E+00  1.9718E-01   1.2712E+00  0.000E+00  0.000E+00  0.000E+00  1.06987E+03  1.555E+00  8.218E+00  5.547E-02  1.777E+00
   1    4    8     3     4    1.2712E+00  2.2567E-01   1.0456E+00  0.000E+00  0.000E+00  0.000E+00  1.06682E+03  1.364E+00  7.455E+00  6.709E-02  1.682E+00
   1    5    8     3     5    1.0456E+00  1.5790E-01   8.8768E-01  0.000E+00  0.000E+00  0.000E+00  1.06362E+03  1.164E+00  6.655E+00  4.991E-02  1.582E+00
   1    6    8     3     6    8.8768E-01  5.5980E-02   8.3170E-01  0.000E+00  0.000E+00  0.000E+00  1.06158E+03  1.036E+00  6.145E+00  1.844E-02  1.518E+00
   1    5   10     4     1    1.0000E+01  9.0919E-02   9.9091E+00  0.000E+00  0.000E+00  0.000E+00  1.07836E+03  6.368E-01  1.000E+01  2.500E-02  1.212E+00
   1    5    9     4     2    9.9091E+00  1.8158E-01   9.7275E+00  0.000E+00  0.000E+00  0.000E+00  1.07154E+03  6.315E-01  1.000E+01  5.000E-02  1.211E+00
   1    6    8     4     3    9.7275E+00  1.2689E-01   9.6006E+00  0.000E+00  0.000E+00  0.000E+00  1.06381E+03  6.256E-01  1.000E+01  3.500E-02  1.209E+00
   1    6    8     5     1    1.0432E+01  2.2686E-01   1.0205E+01  0.000E+00  0.000E+00  0.000E+00  1.05868E+03  6.790E-01  1.542E+01  6.166E-02  1.226E+00
   1    7    7     5     2    1.0205E+01  2.7894E-01   9.9265E+00  0.000E+00  0.000E+00  0.000E+00  1.05417E+03  6.732E-01  1.519E+01  7.594E-02  1.224E+00
   1    8    7     5     3    9.9265E+00  1.9221E-01   9.7343E+00  0.000E+00  0.000E+00  0.000E+00  1.04992E+03  6.676E-01  1.497E+01  5.241E-02  1.223E+00
   1    8    6     5     4    9.7343E+00  1.3577E-01   9.5985E+00  0.000E+00  0.000E+00  0.000E+00  1.04691E+03  6.637E-01  1.482E+01  3.706E-02  1.221E+00
   1    9    6     6     1    7.8783E+01  3.2569E-01   7.8457E+01  0.000E+00  0.000E+00  0.000E+00  1.04516E+03  2.428E+00  1.200E+01  6.000E-02  1.809E+00
   1   10    7     6     2    7.8457E+01  3.2533E-01   7.8132E+01  0.000E+00  0.000E+00  0.000E+00  1.04060E+03  2.422E+00  1.200E+01  6.000E-02  1.807E+00
   1   11    7     6     3    7.8132E+01  3.2497E-01   7.7807E+01  0.000E+00  0.000E+00  0.000E+00  1.03605E+03  2.416E+00  1.200E+01  6.000E-02  1.805E+00
   1   12    7     6     4    7.7807E+01  3.2461E-01   7.7482E+01  0.000E+00  0.000E+00  0.000E+00  1.03150E+03  2.410E+00  1.200E+01  6.000E-02  1.803E+00
   1   13    7     6     5    7.7482E+01  2.5718E-02   7.7457E+01  0.000E+00  0.000E+00  0.000E+00  1.02832E+03  2.407E+00  1.200E+01  2.400E-02  3.572E-01
   1   14    9     7     1    1.5000E+02  1.3316E+00   1.4867E+02  0.000E+00  0.000E+00  0.000E+00  1.03987E+03  2.288E+00  5.529E+01  5.593E-01  7.936E-01
   1   13    8     7     2    1.4867E+02  1.7983E+00   1.4687E+02  0.000E+00  0.000E+00  0.000E+00  1.03478E+03  2.279E+00  5.526E+01  6.148E-01  9.750E-01
   1   13    7     7     3    1.4687E+02  1.3660E+00   1.4550E+02  0.000E+00  0.000E+00  0.000E+00  1.02969E+03  2.271E+00  5.522E+01  5.585E-01  8.153E-01
   1   13    6     8     1    2.2296E+02  1.0157E+00   2.2194E+02  0.000E+00  0.000E+00  0.000E+00  1.02514E+03  3.265E+00  4.735E+01  4.825E-01  7.017E-01
   1   13    5     8     2    2.2194E+02  2.0148E-01   2.2174E+02  0.000E+00  0.000E+00  0.000E+00  1.01889E+03  3.262E+00  4.730E+01  4.820E-01  1.393E-01
   1   13    4     8     3    2.2174E+02 -1.9153E+00   2.2366E+02  0.000E+00  0.000E+00  0.000E+00  1.01264E+03  3.267E+00  4.737E+01  4.827E+00 -1.323E-01
   1   13    3     8     4    2.2366E+02 -3.0680E+00   2.2673E+02  0.000E+00  0.000E+00  0.000E+00  1.00641E+03  3.280E+00  4.757E+01  4.847E+00 -2.110E-01
   1   13    2     8     5    2.2673E+02 -2.5090E+00   2.2924E+02  0.000E+00  0.000E+00  0.000E+00  1.00017E+03  3.296E+00  4.779E+01  4.870E+00 -1.717E-01
   1   13    1     8     6    2.2924E+02 -1.9837E+00   2.3122E+02  0.000E+00  0.000E+00  0.000E+00  9.95183E+02  3.308E+00  4.796E+01  2.933E+00 -2.255E-01





UNSATURATED ZONE PACKAGE VOLUMETRIC BUDGET FOR  TIME STEP    30 STRESS PERIOD    8
  ------------------------------------------------------------------------------



     CUMULATIVE VOLUMES      L**3       RATES FOR THIS TIME STEP      L**3/T
     ------------------                 ------------------------

           IN:                                      IN:
           ---                                      ---
        INFILTRATION =   323355782.1858          INFILTRATION =          64.0740

          OUT:                                     OUT:
          ----                                     ----
              UZF ET =   304929095.0442                UZF ET =          64.1075
        UZF RECHARGE =       73224.0000          UZF RECHARGE =       0.0000E+00

            IN - OUT =    18353463.1416              IN - OUT =      -3.3517E-02

          STORAGE:                                 STORAGE:
          --------                                 --------
      STORAGE CHANGE =    18353457.0093        STORAGE CHANGE =      -3.3517E-02

 PERCENT DISCREPANCY IS DIFFERENCE BETWEEN IN-OUT MINUS CHANGE IN STORAGE
 DIVIDED BY THE AVERAGE OF IN AND OUT TIMES 100

 PERCENT DISCREPANCY =           0.00     PERCENT DISCREPANCY =           0.00






1
  VOLUMETRIC BUDGET FOR AGRICULTURAL FIELDS AT TIME STEP   30, STRESS PERIOD   8
  ------------------------------------------------------------------------------

     CUMULATIVE VOLUMES      L**3       RATES FOR THIS TIME STEP      L**3/T
     ------------------                 ------------------------

           IN:                                      IN:
           ---                                      ---
               AG WELLS  =   242140512.0000                 AG WELLS  =          59.6665
      DIVERSION SEGMENTS =           0.0000        DIVERSION SEGMENTS =           0.0000
           GW IRRIGATION =           0.0000             GW IRRIGATION =           0.0000
           SW IRRIGATION =           0.0000             SW IRRIGATION =           0.0000
        SYSTEM LOSSES GW =           0.0000          SYSTEM LOSSES GW =           0.0000
        SYSTEM LOSSES SW =           0.0000          SYSTEM LOSSES SW =           0.0000

                TOTAL IN =   242140512.0000                  TOTAL IN =          59.6665

          OUT:                                     OUT:
          ----                                     ----
               AG WELLS  =           0.0000                 AG WELLS  =           0.0000
      DIVERSION SEGMENTS =           0.0000        DIVERSION SEGMENTS =           0.0000
           GW IRRIGATION =   242140512.0000             GW IRRIGATION =          59.6665
           SW IRRIGATION =           0.0000             SW IRRIGATION =           0.0000
        SYSTEM LOSSES GW =           0.0000          SYSTEM LOSSES GW =           0.0000
        SYSTEM LOSSES SW =           0.0000          SYSTEM LOSSES SW =           0.0000

               TOTAL OUT =   242140512.0000                 TOTAL OUT =          59.6665

                IN - OUT =           0.0000                  IN - OUT =           0.0000

     PERCENT DISCREPANCY =           0.00         PERCENT DISCREPANCY =           0.00



1
  VOLUMETRIC BUDGET FOR ENTIRE MODEL AT END OF TIME STEP   30, STRESS PERIOD   8
  ------------------------------------------------------------------------------

     CUMULATIVE VOLUMES      L**3       RATES FOR THIS TIME STEP      L**3/T
     ------------------                 ------------------------

           IN:                                      IN:
           ---                                      ---
             STORAGE     =   246591152.0000               STORAGE     =          58.6019
       CONSTANT HEAD     =           0.0000         CONSTANT HEAD     =           0.0000
     HEAD DEP BOUNDS     =     5279910.5000       HEAD DEP BOUNDS     =           0.2855
      STREAM LEAKAGE     =   237076704.0000        STREAM LEAKAGE     =          13.2559
        UZF RECHARGE     =       73223.9531          UZF RECHARGE     =           0.0000
               GW ET     =           0.0000                 GW ET     =           0.0000
     SURFACE LEAKAGE     =           0.0000       SURFACE LEAKAGE     =           0.0000
           AG WELLS      =           0.0000             AG WELLS      =           0.0000

                TOTAL IN =   489020992.0000                  TOTAL IN =          72.1433

          OUT:                                     OUT:
          ----                                     ----
             STORAGE     =    45552012.0000               STORAGE     =           1.1706
       CONSTANT HEAD     =           0.0000         CONSTANT HEAD     =           0.0000
     HEAD DEP BOUNDS     =     5460607.5000       HEAD DEP BOUNDS     =           0.2987
      STREAM LEAKAGE     =   185687408.0000        STREAM LEAKAGE     =           9.4760
        UZF RECHARGE     =           0.0000          UZF RECHARGE     =           0.0000
               GW ET     =    10183803.0000                 GW ET     =           1.5318
     SURFACE LEAKAGE     =           0.0000       SURFACE LEAKAGE     =           0.0000
           AG WELLS      =   242140512.0000             AG WELLS      =          59.6665

               TOTAL OUT =   489024352.0000                 TOTAL OUT =          72.1435

                IN - OUT =       -3360.0000                  IN - OUT =      -1.9836E-04

     PERCENT DISCREPANCY =          -0.00         PERCENT DISCREPANCY =          -0.00






         TIME SUMMARY AT END OF TIME STEP   30 IN STRESS PERIOD    8
                    SECONDS     MINUTES      HOURS       DAYS        YEARS
                    -----------------------------------------------------------
   TIME STEP LENGTH  87667.      1461.1      24.352      1.0147     2.77799E-03
 STRESS PERIOD TIME 2.63000E+06  43833.      730.56      30.440     8.33397E-02
         TOTAL TIME 1.84964E+07 3.08274E+05  5137.9      214.08     0.58612    
1
1
                            STRESS PERIOD NO.    9, LENGTH =   2630000.    
                            -----------------------------------------------

                              NUMBER OF TIME STEPS =    30

                               MULTIPLIER FOR DELT =     1.000

                            INITIAL TIME STEP SIZE =   87666.66    

 REUSING NON-PARAMETER GHB CELLS FROM LAST STRESS PERIOD

      2 GHB CELLS

 REUSING STREAM SEGMENT DATA FROM LAST STRESS PERIOD



            AREAL INFILTRATION RATE
 READING ON UNIT   19 WITH FORMAT: (10F4.0)            

            1           2           3           4           5           6           7           8           9          10
 ........................................................................................................................
   1   1.2000E-09   0.000       0.000       0.000       0.000       0.000       0.000       0.000       0.000       0.000    
   2   2.1000E-09  2.0000E-09  8.0000E-10  8.5000E-09   0.000       0.000       0.000       0.000       0.000       0.000    
   3   5.0000E-10  1.1000E-09  8.8000E-09  5.5000E-09   0.000       0.000       0.000       0.000       0.000       0.000    
   4   8.5000E-09  1.1000E-09  1.1000E-09  1.1000E-09  2.0000E-09   0.000       0.000       0.000       0.000       0.000    
   5   8.5000E-09  1.1000E-09  1.1000E-09  1.1000E-09  1.1000E-09   0.000       0.000       0.000       0.000       0.000    
   6   8.5000E-09  5.2000E-09  2.1000E-09  1.1000E-09  1.5000E-09   0.000       0.000       0.000       0.000       0.000    
   7   8.5000E-09  5.2000E-09  2.1000E-09  1.2000E-09  2.0000E-09   0.000       0.000       0.000       0.000       0.000    
   8   5.0000E-10  5.2000E-09  2.1000E-09  1.2000E-09  5.0000E-09   0.000       0.000       0.000       0.000       0.000    
   9   5.0000E-10  5.2000E-09  2.1000E-09  1.2000E-09  5.0000E-09   0.000       0.000       0.000       0.000       0.000    
  10   5.0000E-10  5.2000E-09  2.1000E-09  1.2000E-09  5.8000E-09   0.000       0.000       0.000       0.000       0.000    
  11   1.0000E-10  1.1000E-09  1.1000E-09  1.2000E-09  5.0000E-09   0.000       0.000       0.000       0.000       0.000    
  12   1.1000E-09  1.1000E-09  1.1000E-09  1.1000E-09  2.0000E-09   0.000       0.000       0.000       0.000       0.000    
  13   1.1000E-09  2.2000E-09  2.2000E-09  2.1000E-09  1.0000E-09   0.000       0.000       0.000       0.000       0.000    
  14   2.0000E-10  5.5000E-09  5.5000E-09  5.2000E-09  1.0000E-09   0.000       0.000       0.000       0.000       0.000    
  15    0.000      8.8000E-09  8.8000E-09   0.000       0.000       0.000       0.000       0.000       0.000       0.000    

                  ET RATE =  3.250000E-07

 USING ET EXTINCTION DEPTH FROM PREVIOUS STRESS PERIOD. CURRENT PERIOD IS:       9

 USING EXTINCTION WATER CONTENT FROM PREVIOUS STRESS PERIOD. CURRENT PERIOD IS:       9

 USING AIR ENTRY PRESSURE FROM PREVIOUS STRESS PERIOD. CURRENT PERIOD IS:       9

 USING ROOT PRESSURE HEAD FROM PREVIOUS STRESS PERIOD. CURRENT PERIOD IS:       9

 USING ROOT ACTIVITY FROM PREVIOUS STRESS PERIOD. CURRENT PERIOD IS:       9

 PROCESSING AG STRESS PERIOD DATA

 READING AG STRESS PERIOD DATA

 READING IRRIGATION WELL

 END PROCESSING AG STRESS PERIOD DATA OPTIONS
 
 SOLVING FOR HEAD 
                                                   Max.-Head-Change                         Max.-Flux-Residual
  Residual-Control   Outer-Iter.   Inner-Iter.     Column Row Layer    Maximum-Head-Change  Column Row Layer    Maximum-Flux-Residual          L2-NORM 
          0                 1           2             4    7     1      -0.9157417749E-01       4    7    1        -0.4816041234E+01      0.1087238840E+02
          0                 2           2             4    7     1       0.8907478237E-02       4    7    1         0.4815911439E+00      0.1087198234E+01
          0                 3           2             4    7     1      -0.6065681244E-03       4    7    1        -0.3371151744E-01      0.7610109788E-01
          0                 4           1             4    7     1       0.2413590517E-04       4    7    1         0.1378802415E-02      0.3112324296E-02

    ------------------------------------------------
       NWT REQUIRED            4 OUTER ITERATIONS 
       AND A TOTAL OF          7 INNER ITERATIONS.
    ------------------------------------------------

 NO OUTPUT CONTROL FOR STRESS PERIOD    9   TIME STEP    1
 
 SOLVING FOR HEAD 
                                                   Max.-Head-Change                         Max.-Flux-Residual
  Residual-Control   Outer-Iter.   Inner-Iter.     Column Row Layer    Maximum-Head-Change  Column Row Layer    Maximum-Flux-Residual          L2-NORM 
          0                 1           2             4    7     1      -0.9048768530E-01       4    7    1        -0.4758044401E+01      0.1080752009E+02
          0                 2           2             4    7     1       0.8801798219E-02       4    7    1         0.4757918723E+00      0.1080716931E+01
          0                 3           2             4    7     1      -0.5993716481E-03       4    7    1        -0.3330556437E-01      0.7564787215E-01
          0                 4           1             4    7     1       0.2384955094E-04       4    7    1         0.1362198933E-02      0.3093835038E-02

    ------------------------------------------------
       NWT REQUIRED            4 OUTER ITERATIONS 
       AND A TOTAL OF          7 INNER ITERATIONS.
    ------------------------------------------------

 NO OUTPUT CONTROL FOR STRESS PERIOD    9   TIME STEP    2
 
 SOLVING FOR HEAD 
                                                   Max.-Head-Change                         Max.-Flux-Residual
  Residual-Control   Outer-Iter.   Inner-Iter.     Column Row Layer    Maximum-Head-Change  Column Row Layer    Maximum-Flux-Residual          L2-NORM 
          0                 1           2             4    7     1      -0.8942976337E-01       4    7    1        -0.4701584079E+01      0.1074330697E+02
          0                 2           2             4    7     1       0.8698897057E-02       4    7    1         0.4701462348E+00      0.1074302294E+01
          0                 3           2             4    7     1      -0.5923644039E-03       4    7    1        -0.3291036583E-01      0.7519946457E-01
          0                 4           1             4    7     1       0.2357072651E-04       4    7    1         0.1346035322E-02      0.3075533272E-02

    ------------------------------------------------
       NWT REQUIRED            4 OUTER ITERATIONS 
       AND A TOTAL OF          7 INNER ITERATIONS.
    ------------------------------------------------

 NO OUTPUT CONTROL FOR STRESS PERIOD    9   TIME STEP    3
 
 SOLVING FOR HEAD 
                                                   Max.-Head-Change                         Max.-Flux-Residual
  Residual-Control   Outer-Iter.   Inner-Iter.     Column Row Layer    Maximum-Head-Change  Column Row Layer    Maximum-Flux-Residual          L2-NORM 
          0                 1           2             4    7     1      -0.8839964326E-01       4    7    1        -0.4646619797E+01      0.1068081211E+02
          0                 2           2             4    7     1       0.8598700011E-02       4    7    1         0.4646501847E+00      0.1068057528E+01
          0                 3           2             4    7     1      -0.5855413021E-03       4    7    1        -0.3252563858E-01      0.7476274653E-01
          0                 4           1             4    7     1       0.2329922892E-04       4    7    1         0.1330299962E-02      0.3057692720E-02

    ------------------------------------------------
       NWT REQUIRED            4 OUTER ITERATIONS 
       AND A TOTAL OF          7 INNER ITERATIONS.
    ------------------------------------------------

 NO OUTPUT CONTROL FOR STRESS PERIOD    9   TIME STEP    4
 
 SOLVING FOR HEAD 
                                                   Max.-Head-Change                         Max.-Flux-Residual
  Residual-Control   Outer-Iter.   Inner-Iter.     Column Row Layer    Maximum-Head-Change  Column Row Layer    Maximum-Flux-Residual          L2-NORM 
          0                 1           2             4    7     1      -0.8739628113E-01       4    7    1        -0.4593096143E+01      0.1061982714E+02
          0                 2           2             4    7     1       0.8501105555E-02       4    7    1         0.4592981816E+00      0.1061962402E+01
          0                 3           2             4    7     1      -0.5788954294E-03       4    7    1        -0.3215099478E-01      0.7433639454E-01
          0                 4           1             4    7     1       0.2303478382E-04       4    7    1         0.1314977024E-02      0.3040298854E-02

    ------------------------------------------------
       NWT REQUIRED            4 OUTER ITERATIONS 
       AND A TOTAL OF          7 INNER ITERATIONS.
    ------------------------------------------------

 NO OUTPUT CONTROL FOR STRESS PERIOD    9   TIME STEP    5
 
 SOLVING FOR HEAD 
                                                   Max.-Head-Change                         Max.-Flux-Residual
  Residual-Control   Outer-Iter.   Inner-Iter.     Column Row Layer    Maximum-Head-Change  Column Row Layer    Maximum-Flux-Residual          L2-NORM 
          0                 1           2             4    7     1      -0.8641872598E-01       4    7    1        -0.4540961854E+01      0.1056022773E+02
          0                 2           2             4    7     1       0.8406021193E-02       4    7    1         0.4540851000E+00      0.1056004945E+01
          0                 3           2             4    7     1      -0.5724204867E-03       4    7    1        -0.3178607560E-01      0.7391956429E-01
          0                 4           1             4    7     1       0.2277713987E-04       4    7    1         0.1300051824E-02      0.3023262440E-02

    ------------------------------------------------
       NWT REQUIRED            4 OUTER ITERATIONS 
       AND A TOTAL OF          7 INNER ITERATIONS.
    ------------------------------------------------

 NO OUTPUT CONTROL FOR STRESS PERIOD    9   TIME STEP    6
 
 SOLVING FOR HEAD 
                                                   Max.-Head-Change                         Max.-Flux-Residual
  Residual-Control   Outer-Iter.   Inner-Iter.     Column Row Layer    Maximum-Head-Change  Column Row Layer    Maximum-Flux-Residual          L2-NORM 
          0                 1           2             4    7     1      -0.8546598179E-01       4    7    1        -0.4490163805E+01      0.1050190511E+02
          0                 2           2             4    7     1       0.8313350050E-02       4    7    1         0.4490056279E+00      0.1050174633E+01
          0                 3           2             4    7     1      -0.5661098776E-03       4    7    1        -0.3143050926E-01      0.7351160610E-01
          0                 4           1             4    7     1       0.2252603472E-04       4    7    1         0.1285509137E-02      0.3006600305E-02

    ------------------------------------------------
       NWT REQUIRED            4 OUTER ITERATIONS 
       AND A TOTAL OF          7 INNER ITERATIONS.
    ------------------------------------------------

 NO OUTPUT CONTROL FOR STRESS PERIOD    9   TIME STEP    7
 
 SOLVING FOR HEAD 
                                                   Max.-Head-Change                         Max.-Flux-Residual
  Residual-Control   Outer-Iter.   Inner-Iter.     Column Row Layer    Maximum-Head-Change  Column Row Layer    Maximum-Flux-Residual          L2-NORM 
          0                 1           2             4    7     1      -0.8453727417E-01       4    7    1        -0.4440660510E+01      0.1044478754E+02
          0                 2           2             4    7     1       0.8223016809E-02       4    7    1         0.4440556175E+00      0.1044464394E+01
          0                 3           2             4    7     1      -0.5599584736E-03       4    7    1        -0.3108400538E-01      0.7311202812E-01
          0                 4           1             4    7     1       0.2228126538E-04       4    7    1         0.1271337146E-02      0.2990253000E-02

    ------------------------------------------------
       NWT REQUIRED            4 OUTER ITERATIONS 
       AND A TOTAL OF          7 INNER ITERATIONS.
    ------------------------------------------------

 NO OUTPUT CONTROL FOR STRESS PERIOD    9   TIME STEP    8
 
 SOLVING FOR HEAD 
                                                   Max.-Head-Change                         Max.-Flux-Residual
  Residual-Control   Outer-Iter.   Inner-Iter.     Column Row Layer    Maximum-Head-Change  Column Row Layer    Maximum-Flux-Residual          L2-NORM 
          0                 1           2             4    7     1      -0.8363170468E-01       4    7    1        -0.4392403562E+01      0.1038882016E+02
          0                 2           2             4    7     1       0.8134934085E-02       4    7    1         0.4392302286E+00      0.1038868865E+01
          0                 3           2             4    7     1      -0.5539603225E-03       4    7    1        -0.3074622511E-01      0.7272042528E-01
          0                 4           1             4    7     1       0.2204259355E-04       4    7    1         0.1257521921E-02      0.2974239274E-02

    ------------------------------------------------
       NWT REQUIRED            4 OUTER ITERATIONS 
       AND A TOTAL OF          7 INNER ITERATIONS.
    ------------------------------------------------

 NO OUTPUT CONTROL FOR STRESS PERIOD    9   TIME STEP    9
 
 SOLVING FOR HEAD 
                                                   Max.-Head-Change                         Max.-Flux-Residual
  Residual-Control   Outer-Iter.   Inner-Iter.     Column Row Layer    Maximum-Head-Change  Column Row Layer    Maximum-Flux-Residual          L2-NORM 
          0                 1           2             4    7     1      -0.8274853610E-01       4    7    1        -0.4345353671E+01      0.1033394920E+02
          0                 2           2             4    7     1       0.8049030173E-02       4    7    1         0.4345255328E+00      0.1033382742E+01
          0                 3           2             4    7     1      -0.5481105422E-03       4    7    1        -0.3041689348E-01      0.7233648562E-01
          0                 4           1             4    7     1       0.2180982557E-04       4    7    1         0.1244052256E-02      0.2958533489E-02

    ------------------------------------------------
       NWT REQUIRED            4 OUTER ITERATIONS 
       AND A TOTAL OF          7 INNER ITERATIONS.
    ------------------------------------------------

 NO OUTPUT CONTROL FOR STRESS PERIOD    9   TIME STEP   10
 
 SOLVING FOR HEAD 
                                                   Max.-Head-Change                         Max.-Flux-Residual
  Residual-Control   Outer-Iter.   Inner-Iter.     Column Row Layer    Maximum-Head-Change  Column Row Layer    Maximum-Flux-Residual          L2-NORM 
          0                 1           2             4    7     1      -0.8188679298E-01       4    7    1        -0.4299458019E+01      0.1028012347E+02
          0                 2           2             4    7     1       0.7965210200E-02       4    7    1         0.4299362491E+00      0.1028001006E+01
          0                 3           2             4    7     1      -0.5424026721E-03       4    7    1        -0.3009564081E-01      0.7195981706E-01
          0                 4           1             4    7     1       0.2158270357E-04       4    7    1         0.1230912992E-02      0.2943131735E-02

    ------------------------------------------------
       NWT REQUIRED            4 OUTER ITERATIONS 
       AND A TOTAL OF          7 INNER ITERATIONS.
    ------------------------------------------------

 NO OUTPUT CONTROL FOR STRESS PERIOD    9   TIME STEP   11
 
 SOLVING FOR HEAD 
                                                   Max.-Head-Change                         Max.-Flux-Residual
  Residual-Control   Outer-Iter.   Inner-Iter.     Column Row Layer    Maximum-Head-Change  Column Row Layer    Maximum-Flux-Residual          L2-NORM 
          0                 1           2             4    7     1      -0.8104594344E-01       4    7    1        -0.4254687909E+01      0.1022731452E+02
          0                 2           2             4    7     1       0.7883422428E-02       4    7    1         0.4254595082E+00      0.1022713083E+01
          0                 3           2             4    7     1      -0.5368331896E-03       4    7    1        -0.2978226627E-01      0.7158970064E-01
          0                 4           1             4    7     1       0.2136108916E-04       4    7    1         0.1218095977E-02      0.2928000303E-02

    ------------------------------------------------
       NWT REQUIRED            4 OUTER ITERATIONS 
       AND A TOTAL OF          7 INNER ITERATIONS.
    ------------------------------------------------

 NO OUTPUT CONTROL FOR STRESS PERIOD    9   TIME STEP   12
 
 SOLVING FOR HEAD 
                                                   Max.-Head-Change                         Max.-Flux-Residual
  Residual-Control   Outer-Iter.   Inner-Iter.     Column Row Layer    Maximum-Head-Change  Column Row Layer    Maximum-Flux-Residual          L2-NORM 
          0                 1           2             4    7     1      -0.8022506627E-01       4    7    1        -0.4210993883E+01      0.1017547180E+02
          0                 2           2             4    7     1       0.7803577279E-02       4    7    1         0.4210903647E+00      0.1017537150E+01
          0                 3           2             4    7     1      -0.5313959937E-03       4    7    1        -0.2947642364E-01      0.7122745232E-01
          0                 4           1             4    7     1       0.2114473803E-04       4    7    1         0.1205587006E-02      0.2913184945E-02

    ------------------------------------------------
       NWT REQUIRED            4 OUTER ITERATIONS 
       AND A TOTAL OF          7 INNER ITERATIONS.
    ------------------------------------------------

 NO OUTPUT CONTROL FOR STRESS PERIOD    9   TIME STEP   13
 
 SOLVING FOR HEAD 
                                                   Max.-Head-Change                         Max.-Flux-Residual
  Residual-Control   Outer-Iter.   Inner-Iter.     Column Row Layer    Maximum-Head-Change  Column Row Layer    Maximum-Flux-Residual          L2-NORM 
          0                 1           2             4    7     1      -0.7942354970E-01       4    7    1        -0.4168342757E+01      0.1012458758E+02
          0                 2           2             4    7     1       0.7725615229E-02       4    7    1         0.4168255008E+00      0.1012449234E+01
          0                 3           2             4    7     1      -0.5260870312E-03       4    7    1        -0.2917788068E-01      0.7087132829E-01
          0                 4           1             4    7     1       0.2093348982E-04       4    7    1         0.1193376595E-02      0.2898637137E-02

    ------------------------------------------------
       NWT REQUIRED            4 OUTER ITERATIONS 
       AND A TOTAL OF          7 INNER ITERATIONS.
    ------------------------------------------------

 NO OUTPUT CONTROL FOR STRESS PERIOD    9   TIME STEP   14
 
 SOLVING FOR HEAD 
                                                   Max.-Head-Change                         Max.-Flux-Residual
  Residual-Control   Outer-Iter.   Inner-Iter.     Column Row Layer    Maximum-Head-Change  Column Row Layer    Maximum-Flux-Residual          L2-NORM 
          0                 1           2             4    7     1      -0.7864065213E-01       4    7    1        -0.4126694564E+01      0.1007460860E+02
          0                 2           2             4    7     1       0.7649464155E-02       4    7    1         0.4126609205E+00      0.1007451800E+01
          0                 3           2             4    7     1      -0.5209013910E-03       4    7    1        -0.2888635767E-01      0.7052155005E-01
          0                 4           1             4    7     1       0.2072714858E-04       4    7    1         0.1181453291E-02      0.2884337724E-02

    ------------------------------------------------
       NWT REQUIRED            4 OUTER ITERATIONS 
       AND A TOTAL OF          7 INNER ITERATIONS.
    ------------------------------------------------

 NO OUTPUT CONTROL FOR STRESS PERIOD    9   TIME STEP   15
 
 SOLVING FOR HEAD 
                                                   Max.-Head-Change                         Max.-Flux-Residual
  Residual-Control   Outer-Iter.   Inner-Iter.     Column Row Layer    Maximum-Head-Change  Column Row Layer    Maximum-Flux-Residual          L2-NORM 
          0                 1           2             4    7     1      -0.7787571781E-01       4    7    1        -0.4086013714E+01      0.1002550425E+02
          0                 2           2             4    7     1       0.7575060280E-02       4    7    1         0.4085930650E+00      0.1002541757E+01
          0                 3           2             4    7     1      -0.5158347301E-03       4    7    1        -0.2860160550E-01      0.7017784892E-01
          0                 4           1             4    7     1       0.2052554162E-04       4    7    1         0.1169806927E-02      0.2870261809E-02

    ------------------------------------------------
       NWT REQUIRED            4 OUTER ITERATIONS 
       AND A TOTAL OF          7 INNER ITERATIONS.
    ------------------------------------------------

 NO OUTPUT CONTROL FOR STRESS PERIOD    9   TIME STEP   16
 
 SOLVING FOR HEAD 
                                                   Max.-Head-Change                         Max.-Flux-Residual
  Residual-Control   Outer-Iter.   Inner-Iter.     Column Row Layer    Maximum-Head-Change  Column Row Layer    Maximum-Flux-Residual          L2-NORM 
          0                 1           2             4    7     1      -0.7712817962E-01       4    7    1        -0.4046269677E+01      0.9977259614E+01
          0                 2           2             4    7     1       0.7502348441E-02       4    7    1         0.4046188817E+00      0.9977176607E+00
          0                 3           2             4    7     1      -0.5108832917E-03       4    7    1        -0.2832341047E-01      0.6984017691E-01
          0                 4           1             4    7     1       0.2032851926E-04       4    7    1         0.1158428742E-02      0.2856454493E-02

    ------------------------------------------------
       NWT REQUIRED            4 OUTER ITERATIONS 
       AND A TOTAL OF          7 INNER ITERATIONS.
    ------------------------------------------------

 NO OUTPUT CONTROL FOR STRESS PERIOD    9   TIME STEP   17
 
 SOLVING FOR HEAD 
                                                   Max.-Head-Change                         Max.-Flux-Residual
  Residual-Control   Outer-Iter.   Inner-Iter.     Column Row Layer    Maximum-Head-Change  Column Row Layer    Maximum-Flux-Residual          L2-NORM 
          0                 1           2             4    7     1      -0.7639742851E-01       4    7    1        -0.4007429571E+01      0.9929832346E+01
          0                 2           2             4    7     1       0.7431269402E-02       4    7    1         0.4007350831E+00      0.9929752470E+00
          0                 3           2             4    7     1      -0.5060430424E-03       4    7    1        -0.2805154245E-01      0.6950823245E-01
          0                 4           1             4    7     1       0.2013592149E-04       4    7    1         0.1147309348E-02      0.2842877292E-02

    ------------------------------------------------
       NWT REQUIRED            4 OUTER ITERATIONS 
       AND A TOTAL OF          7 INNER ITERATIONS.
    ------------------------------------------------

 NO OUTPUT CONTROL FOR STRESS PERIOD    9   TIME STEP   18
 
 SOLVING FOR HEAD 
                                                   Max.-Head-Change                         Max.-Flux-Residual
  Residual-Control   Outer-Iter.   Inner-Iter.     Column Row Layer    Maximum-Head-Change  Column Row Layer    Maximum-Flux-Residual          L2-NORM 
          0                 1           2             4    7     1      -0.7568281599E-01       4    7    1        -0.3969458003E+01      0.9883216716E+01
          0                 2           2             4    7     1       0.7361760089E-02       4    7    1         0.3969381301E+00      0.9883139803E+00
          0                 3           2             4    7     1      -0.5013096862E-03       4    7    1        -0.2778575369E-01      0.6918196718E-01
          0                 4           1             4    7     1       0.1994757665E-04       4    7    1         0.1136438560E-02      0.2829540764E-02

    ------------------------------------------------
       NWT REQUIRED            4 OUTER ITERATIONS 
       AND A TOTAL OF          7 INNER ITERATIONS.
    ------------------------------------------------

 NO OUTPUT CONTROL FOR STRESS PERIOD    9   TIME STEP   19
 
 SOLVING FOR HEAD 
                                                   Max.-Head-Change                         Max.-Flux-Residual
  Residual-Control   Outer-Iter.   Inner-Iter.     Column Row Layer    Maximum-Head-Change  Column Row Layer    Maximum-Flux-Residual          L2-NORM 
          0                 1           2             4    7     1      -0.7498377351E-01       4    7    1        -0.3932324210E+01      0.9837378940E+01
          0                 2           2             4    7     1       0.7293765204E-02       4    7    1         0.3932249469E+00      0.9837304450E+00
          0                 3           2             4    7     1      -0.4966794585E-03       4    7    1        -0.2752582888E-01      0.6886112133E-01
          0                 4           1             4    7     1       0.1976333577E-04       4    7    1         0.1125807649E-02      0.2816415026E-02

    ------------------------------------------------
       NWT REQUIRED            4 OUTER ITERATIONS 
       AND A TOTAL OF          7 INNER ITERATIONS.
    ------------------------------------------------

 NO OUTPUT CONTROL FOR STRESS PERIOD    9   TIME STEP   20
 
 SOLVING FOR HEAD 
                                                   Max.-Head-Change                         Max.-Flux-Residual
  Residual-Control   Outer-Iter.   Inner-Iter.     Column Row Layer    Maximum-Head-Change  Column Row Layer    Maximum-Flux-Residual          L2-NORM 
          0                 1           2             4    7     1      -0.7429986814E-01       4    7    1        -0.3896005038E+01      0.9792299361E+01
          0                 2           2             4    7     1       0.7227242638E-02       4    7    1         0.3895932184E+00      0.9792227345E+00
          0                 3           2             4    7     1      -0.4921494911E-03       4    7    1        -0.2727160599E-01      0.6854559890E-01
          0                 4           1             4    7     1       0.1958308451E-04       4    7    1         0.1115409926E-02      0.2803508228E-02

    ------------------------------------------------
       NWT REQUIRED            4 OUTER ITERATIONS 
       AND A TOTAL OF          7 INNER ITERATIONS.
    ------------------------------------------------

 NO OUTPUT CONTROL FOR STRESS PERIOD    9   TIME STEP   21
 
 SOLVING FOR HEAD 
                                                   Max.-Head-Change                         Max.-Flux-Residual
  Residual-Control   Outer-Iter.   Inner-Iter.     Column Row Layer    Maximum-Head-Change  Column Row Layer    Maximum-Flux-Residual          L2-NORM 
          0                 1           2             4    7     1      -0.7363055391E-01       4    7    1        -0.3860470757E+01      0.9747958283E+01
          0                 2           2             4    7     1       0.7162072254E-02       4    7    1         0.3860399719E+00      0.9747732887E+00
          0                 3           2             4    7     1      -0.4877116039E-03       4    7    1        -0.2702287696E-01      0.6823414450E-01
          0                 4           1             4    7     1       0.1940649685E-04       4    7    1         0.1105236910E-02      0.2790779243E-02

    ------------------------------------------------
       NWT REQUIRED            4 OUTER ITERATIONS 
       AND A TOTAL OF          7 INNER ITERATIONS.
    ------------------------------------------------

 NO OUTPUT CONTROL FOR STRESS PERIOD    9   TIME STEP   22
 
 SOLVING FOR HEAD 
                                                   Max.-Head-Change                         Max.-Flux-Residual
  Residual-Control   Outer-Iter.   Inner-Iter.     Column Row Layer    Maximum-Head-Change  Column Row Layer    Maximum-Flux-Residual          L2-NORM 
          0                 1           2             4    7     1      -0.7297540558E-01       4    7    1        -0.3825689350E+01      0.9704353669E+01
          0                 2           2             4    7     1       0.7098413853E-02       4    7    1         0.3825620072E+00      0.9704285856E+00
          0                 3           2             4    7     1      -0.4833766770E-03       4    7    1        -0.2677941763E-01      0.6792997606E-01
          0                 4           1             4    7     1       0.1923400612E-04       4    7    1         0.1095279409E-02      0.2778309841E-02

    ------------------------------------------------
       NWT REQUIRED            4 OUTER ITERATIONS 
       AND A TOTAL OF          7 INNER ITERATIONS.
    ------------------------------------------------

 NO OUTPUT CONTROL FOR STRESS PERIOD    9   TIME STEP   23
 
 SOLVING FOR HEAD 
                                                   Max.-Head-Change                         Max.-Flux-Residual
  Residual-Control   Outer-Iter.   Inner-Iter.     Column Row Layer    Maximum-Head-Change  Column Row Layer    Maximum-Flux-Residual          L2-NORM 
          0                 1           2             4    7     1      -0.7233396022E-01       4    7    1        -0.3791648931E+01      0.9661460520E+01
          0                 2           2             4    7     1       0.7036021190E-02       4    7    1         0.3791581342E+00      0.9661401864E+00
          0                 3           2             4    7     1      -0.4791279371E-03       4    7    1        -0.2654114480E-01      0.6762646450E-01
          0                 4           1             4    7     1       0.1906494527E-04       4    7    1         0.1085534056E-02      0.2765920550E-02

    ------------------------------------------------
       NWT REQUIRED            4 OUTER ITERATIONS 
       AND A TOTAL OF          7 INNER ITERATIONS.
    ------------------------------------------------

 NO OUTPUT CONTROL FOR STRESS PERIOD    9   TIME STEP   24
 
 SOLVING FOR HEAD 
                                                   Max.-Head-Change                         Max.-Flux-Residual
  Residual-Control   Outer-Iter.   Inner-Iter.     Column Row Layer    Maximum-Head-Change  Column Row Layer    Maximum-Flux-Residual          L2-NORM 
          0                 1           2             4    7     1      -0.7170582556E-01       4    7    1        -0.3758324521E+01      0.9619242752E+01
          0                 2           2             4    7     1       0.6974923291E-02       4    7    1         0.3758258559E+00      0.9619585784E+00
          0                 3           2             4    7     1      -0.4749673769E-03       4    7    1        -0.2630788369E-01      0.6733533513E-01
          0                 4           1             4    7     1       0.1889939247E-04       4    7    1         0.1075993647E-02      0.2754017390E-02

    ------------------------------------------------
       NWT REQUIRED            4 OUTER ITERATIONS 
       AND A TOTAL OF          7 INNER ITERATIONS.
    ------------------------------------------------

 NO OUTPUT CONTROL FOR STRESS PERIOD    9   TIME STEP   25
 
 SOLVING FOR HEAD 
                                                   Max.-Head-Change                         Max.-Flux-Residual
  Residual-Control   Outer-Iter.   Inner-Iter.     Column Row Layer    Maximum-Head-Change  Column Row Layer    Maximum-Flux-Residual          L2-NORM 
          0                 1           2             4    7     1      -0.7109037556E-01       4    7    1        -0.3725682065E+01      0.9577661154E+01
          0                 2           2             4    7     1       0.6915059081E-02       4    7    1         0.3725617672E+00      0.9577951814E+00
          0                 3           2             4    7     1      -0.4708908266E-03       4    7    1        -0.2607939591E-01      0.6704569586E-01
          0                 4           1             4    7     1       0.1873718274E-04       4    7    1         0.1066648508E-02      0.2742171872E-02

    ------------------------------------------------
       NWT REQUIRED            4 OUTER ITERATIONS 
       AND A TOTAL OF          7 INNER ITERATIONS.
    ------------------------------------------------

 NO OUTPUT CONTROL FOR STRESS PERIOD    9   TIME STEP   26
 
 SOLVING FOR HEAD 
                                                   Max.-Head-Change                         Max.-Flux-Residual
  Residual-Control   Outer-Iter.   Inner-Iter.     Column Row Layer    Maximum-Head-Change  Column Row Layer    Maximum-Flux-Residual          L2-NORM 
          0                 1           2             4    7     1      -0.7048728288E-01       4    7    1        -0.3693703663E+01      0.9536704207E+01
          0                 2           2             4    7     1       0.6856396783E-02       4    7    1         0.3693640783E+00      0.9536643899E+00
          0                 3           2             4    7     1      -0.4668961192E-03       4    7    1        -0.2585555615E-01      0.6675654486E-01
          0                 4           1             4    7     1       0.1857822952E-04       4    7    1         0.1057493426E-02      0.2730342010E-02

    ------------------------------------------------
       NWT REQUIRED            4 OUTER ITERATIONS 
       AND A TOTAL OF          7 INNER ITERATIONS.
    ------------------------------------------------

 NO OUTPUT CONTROL FOR STRESS PERIOD    9   TIME STEP   27
 
 SOLVING FOR HEAD 
                                                   Max.-Head-Change                         Max.-Flux-Residual
  Residual-Control   Outer-Iter.   Inner-Iter.     Column Row Layer    Maximum-Head-Change  Column Row Layer    Maximum-Flux-Residual          L2-NORM 
          0                 1           2             4    7     1      -0.6989601547E-01       4    7    1        -0.3662360650E+01      0.9496381183E+01
          0                 2           2             4    7     1       0.6798884738E-02       4    7    1         0.3662299228E+00      0.9496322318E+00
          0                 3           2             4    7     1      -0.4629797413E-03       4    7    1        -0.2563616379E-01      0.6647430467E-01
          0                 4           1             4    7     1       0.1842239349E-04       4    7    1         0.1048520294E-02      0.2718805306E-02

    ------------------------------------------------
       NWT REQUIRED            4 OUTER ITERATIONS 
       AND A TOTAL OF          7 INNER ITERATIONS.
    ------------------------------------------------

 NO OUTPUT CONTROL FOR STRESS PERIOD    9   TIME STEP   28
 
 SOLVING FOR HEAD 
                                                   Max.-Head-Change                         Max.-Flux-Residual
  Residual-Control   Outer-Iter.   Inner-Iter.     Column Row Layer    Maximum-Head-Change  Column Row Layer    Maximum-Flux-Residual          L2-NORM 
          0                 1           2             4    7     1      -0.6931653290E-01       4    7    1        -0.3631650712E+01      0.9456675410E+01
          0                 2           2             4    7     1       0.6741383053E-02       4    7    1         0.3630068690E+00      0.9456535587E+00
          0                 3           2             4    7     1      -0.4590640429E-03       4    7    1        -0.2541054677E-01      0.6619579857E-01
          0                 4           1             4    7     1       0.1826658452E-04       4    7    1         0.1039292556E-02      0.2707412688E-02

    ------------------------------------------------
       NWT REQUIRED            4 OUTER ITERATIONS 
       AND A TOTAL OF          7 INNER ITERATIONS.
    ------------------------------------------------

 NO OUTPUT CONTROL FOR STRESS PERIOD    9   TIME STEP   29
 
 SOLVING FOR HEAD 
                                                   Max.-Head-Change                         Max.-Flux-Residual
  Residual-Control   Outer-Iter.   Inner-Iter.     Column Row Layer    Maximum-Head-Change  Column Row Layer    Maximum-Flux-Residual          L2-NORM 
          0                 1           2             4    7     1      -0.6876479785E-01       4    7    1        -0.3601591521E+01      0.9417587457E+01
          0                 2           2             4    7     1       0.6688854594E-02       4    7    1         0.3601534581E+00      0.9417531157E+00
          0                 3           2             4    7     1      -0.4554870329E-03       4    7    1        -0.2521080683E-01      0.6592276924E-01
          0                 4           1             4    7     1       0.1812425180E-04       4    7    1         0.1031123178E-02      0.2696242573E-02

    ------------------------------------------------
       NWT REQUIRED            4 OUTER ITERATIONS 
       AND A TOTAL OF          7 INNER ITERATIONS.
    ------------------------------------------------

 NO OUTPUT CONTROL FOR STRESS PERIOD    9   TIME STEP   30



 STREAM LISTING     PERIOD      9   STEP       30

 LAYER ROW COL. STREAM  RCH.  FLOW INTO     FLOW TO   FLOW OUT OF   OVRLND.     DIRECT     STREAM       STREAM     STREAM     STREAM   STREAMBED  STREAMBED
                SEG.NO.  NO.  STRM. RCH.    AQUIFER    STRM. RCH.    RUNOFF     PRECIP       ET          HEAD       DEPTH      WIDTH   CONDCTNC.   GRADIENT

   1    1    1     1     1    6.1000E+01  3.7546E-01   6.0624E+01  0.000E+00  0.000E+00  0.000E+00  1.09459E+03  1.538E+00  1.839E+01  8.274E-02  1.513E+00
   1    2    2     1     2    6.0624E+01  5.8146E-01   6.0043E+01  0.000E+00  0.000E+00  0.000E+00  1.08959E+03  1.532E+00  1.833E+01  1.283E-01  1.511E+00
   1    3    3     1     3    6.0043E+01  4.9588E-01   5.9547E+01  0.000E+00  0.000E+00  0.000E+00  1.08394E+03  1.525E+00  1.826E+01  1.096E-01  1.508E+00
   1    3    4     1     4    5.9547E+01  4.5664E-01   5.9090E+01  0.000E+00  0.000E+00  0.000E+00  1.07893E+03  1.519E+00  1.821E+01  1.010E-01  1.506E+00
   1    4    5     2     1    5.7090E+01  3.8827E-01   5.6702E+01  0.000E+00  0.000E+00  0.000E+00  1.07391E+03  1.978E+00  1.200E+01  7.800E-02  1.659E+00
   1    5    6     2     2    5.6702E+01  2.9824E-01   5.6404E+01  0.000E+00  0.000E+00  0.000E+00  1.06848E+03  1.971E+00  1.200E+01  6.000E-02  1.657E+00
   1    6    6     2     3    5.6404E+01  2.9787E-01   5.6106E+01  0.000E+00  0.000E+00  0.000E+00  1.06376E+03  1.964E+00  1.200E+01  6.000E-02  1.655E+00
   1    7    6     2     4    5.6106E+01  2.9749E-01   5.5808E+01  0.000E+00  0.000E+00  0.000E+00  1.05903E+03  1.958E+00  1.200E+01  6.000E-02  1.653E+00
   1    8    6     2     5    5.5808E+01  2.9712E-01   5.5511E+01  0.000E+00  0.000E+00  0.000E+00  1.05431E+03  1.952E+00  1.200E+01  6.000E-02  1.651E+00
   1    3    5     3     1    2.0000E+00  2.8252E-01   1.7175E+00  0.000E+00  0.000E+00  0.000E+00  1.07555E+03  1.909E+00  9.636E+00  7.227E-02  1.955E+00
   1    3    6     3     2    1.7175E+00  2.4905E-01   1.4684E+00  0.000E+00  0.000E+00  0.000E+00  1.07264E+03  1.727E+00  8.909E+00  6.682E-02  1.864E+00
   1    3    7     3     3    1.4684E+00  1.9718E-01   1.2712E+00  0.000E+00  0.000E+00  0.000E+00  1.06987E+03  1.555E+00  8.218E+00  5.547E-02  1.777E+00
   1    4    8     3     4    1.2712E+00  2.2567E-01   1.0456E+00  0.000E+00  0.000E+00  0.000E+00  1.06682E+03  1.364E+00  7.455E+00  6.709E-02  1.682E+00
   1    5    8     3     5    1.0456E+00  1.5790E-01   8.8768E-01  0.000E+00  0.000E+00  0.000E+00  1.06362E+03  1.164E+00  6.655E+00  4.991E-02  1.582E+00
   1    6    8     3     6    8.8768E-01  5.5980E-02   8.3170E-01  0.000E+00  0.000E+00  0.000E+00  1.06158E+03  1.036E+00  6.145E+00  1.844E-02  1.518E+00
   1    5   10     4     1    1.0000E+01  9.0919E-02   9.9091E+00  0.000E+00  0.000E+00  0.000E+00  1.07836E+03  6.368E-01  1.000E+01  2.500E-02  1.212E+00
   1    5    9     4     2    9.9091E+00  1.8158E-01   9.7275E+00  0.000E+00  0.000E+00  0.000E+00  1.07154E+03  6.315E-01  1.000E+01  5.000E-02  1.211E+00
   1    6    8     4     3    9.7275E+00  1.2689E-01   9.6006E+00  0.000E+00  0.000E+00  0.000E+00  1.06381E+03  6.256E-01  1.000E+01  3.500E-02  1.209E+00
   1    6    8     5     1    1.0432E+01  2.2686E-01   1.0205E+01  0.000E+00  0.000E+00  0.000E+00  1.05868E+03  6.790E-01  1.542E+01  6.166E-02  1.226E+00
   1    7    7     5     2    1.0205E+01  2.7894E-01   9.9265E+00  0.000E+00  0.000E+00  0.000E+00  1.05417E+03  6.732E-01  1.519E+01  7.594E-02  1.224E+00
   1    8    7     5     3    9.9265E+00  1.9221E-01   9.7343E+00  0.000E+00  0.000E+00  0.000E+00  1.04992E+03  6.676E-01  1.497E+01  5.241E-02  1.223E+00
   1    8    6     5     4    9.7343E+00  1.3577E-01   9.5985E+00  0.000E+00  0.000E+00  0.000E+00  1.04691E+03  6.637E-01  1.482E+01  3.706E-02  1.221E+00
   1    9    6     6     1    6.5110E+01  3.0992E-01   6.4800E+01  0.000E+00  0.000E+00  0.000E+00  1.04489E+03  2.165E+00  1.200E+01  6.000E-02  1.722E+00
   1   10    7     6     2    6.4800E+01  3.0955E-01   6.4490E+01  0.000E+00  0.000E+00  0.000E+00  1.04034E+03  2.159E+00  1.200E+01  6.000E-02  1.720E+00
   1   11    7     6     3    6.4490E+01  3.0918E-01   6.4181E+01  0.000E+00  0.000E+00  0.000E+00  1.03579E+03  2.153E+00  1.200E+01  6.000E-02  1.718E+00
   1   12    7     6     4    6.4181E+01  3.0881E-01   6.3872E+01  0.000E+00  0.000E+00  0.000E+00  1.03124E+03  2.147E+00  1.200E+01  6.000E-02  1.716E+00
   1   13    7     6     5    6.3872E+01  1.9330E-02   6.3853E+01  0.000E+00  0.000E+00  0.000E+00  1.02805E+03  2.143E+00  1.200E+01  2.400E-02  2.685E-01
   1   14    9     7     1    1.5000E+02  1.3312E+00   1.4867E+02  0.000E+00  0.000E+00  0.000E+00  1.03987E+03  2.288E+00  5.529E+01  5.593E-01  7.934E-01
   1   13    8     7     2    1.4867E+02  1.7954E+00   1.4687E+02  0.000E+00  0.000E+00  0.000E+00  1.03478E+03  2.279E+00  5.526E+01  6.148E-01  9.735E-01
   1   13    7     7     3    1.4687E+02  1.3645E+00   1.4551E+02  0.000E+00  0.000E+00  0.000E+00  1.02969E+03  2.271E+00  5.522E+01  5.585E-01  8.144E-01
   1   13    6     8     1    2.0936E+02  9.6390E-01   2.0840E+02  0.000E+00  0.000E+00  0.000E+00  1.02506E+03  3.189E+00  4.624E+01  4.712E-01  6.818E-01
   1   13    5     8     2    2.0840E+02  1.6967E-01   2.0823E+02  0.000E+00  0.000E+00  0.000E+00  1.01881E+03  3.186E+00  4.620E+01  4.708E-01  1.201E-01
   1   13    4     8     3    2.0823E+02 -2.1845E+00   2.1041E+02  0.000E+00  0.000E+00  0.000E+00  1.01257E+03  3.192E+00  4.628E+01  4.716E+00 -1.544E-01
   1   13    3     8     4    2.1041E+02 -3.3102E+00   2.1372E+02  0.000E+00  0.000E+00  0.000E+00  1.00633E+03  3.207E+00  4.651E+01  4.739E+00 -2.328E-01
   1   13    2     8     5    2.1372E+02 -2.5496E+00   2.1627E+02  0.000E+00  0.000E+00  0.000E+00  1.00010E+03  3.224E+00  4.675E+01  4.764E+00 -1.784E-01
   1   13    1     8     6    2.1627E+02 -2.0052E+00   2.1828E+02  0.000E+00  0.000E+00  0.000E+00  9.95112E+02  3.237E+00  4.693E+01  2.870E+00 -2.329E-01





UNSATURATED ZONE PACKAGE VOLUMETRIC BUDGET FOR  TIME STEP    30 STRESS PERIOD    9
  ------------------------------------------------------------------------------



     CUMULATIVE VOLUMES      L**3       RATES FOR THIS TIME STEP      L**3/T
     ------------------                 ------------------------

           IN:                                      IN:
           ---                                      ---
        INFILTRATION =   462307755.5159          INFILTRATION =          52.8401

          OUT:                                     OUT:
          ----                                     ----
              UZF ET =   443944312.1243                UZF ET =          52.8575
        UZF RECHARGE =       73224.0000          UZF RECHARGE =       0.0000E+00

            IN - OUT =    18290219.3916              IN - OUT =      -1.7417E-02

          STORAGE:                                 STORAGE:
          --------                                 --------
      STORAGE CHANGE =    18290208.4998        STORAGE CHANGE =      -1.7415E-02

 PERCENT DISCREPANCY IS DIFFERENCE BETWEEN IN-OUT MINUS CHANGE IN STORAGE
 DIVIDED BY THE AVERAGE OF IN AND OUT TIMES 100

 PERCENT DISCREPANCY =           0.00     PERCENT DISCREPANCY =           0.00






1
  VOLUMETRIC BUDGET FOR AGRICULTURAL FIELDS AT TIME STEP   30, STRESS PERIOD   9
  ------------------------------------------------------------------------------

     CUMULATIVE VOLUMES      L**3       RATES FOR THIS TIME STEP      L**3/T
     ------------------                 ------------------------

           IN:                                      IN:
           ---                                      ---
               AG WELLS  =   369500704.0000                 AG WELLS  =          48.4326
      DIVERSION SEGMENTS =           0.0000        DIVERSION SEGMENTS =           0.0000
           GW IRRIGATION =           0.0000             GW IRRIGATION =           0.0000
           SW IRRIGATION =           0.0000             SW IRRIGATION =           0.0000
        SYSTEM LOSSES GW =           0.0000          SYSTEM LOSSES GW =           0.0000
        SYSTEM LOSSES SW =           0.0000          SYSTEM LOSSES SW =           0.0000

                TOTAL IN =   369500704.0000                  TOTAL IN =          48.4326

          OUT:                                     OUT:
          ----                                     ----
               AG WELLS  =           0.0000                 AG WELLS  =           0.0000
      DIVERSION SEGMENTS =           0.0000        DIVERSION SEGMENTS =           0.0000
           GW IRRIGATION =   369500704.0000             GW IRRIGATION =          48.4326
           SW IRRIGATION =           0.0000             SW IRRIGATION =           0.0000
        SYSTEM LOSSES GW =           0.0000          SYSTEM LOSSES GW =           0.0000
        SYSTEM LOSSES SW =           0.0000          SYSTEM LOSSES SW =           0.0000

               TOTAL OUT =   369500704.0000                 TOTAL OUT =          48.4326

                IN - OUT =           0.0000                  IN - OUT =           0.0000

     PERCENT DISCREPANCY =           0.00         PERCENT DISCREPANCY =           0.00



1
  VOLUMETRIC BUDGET FOR ENTIRE MODEL AT END OF TIME STEP   30, STRESS PERIOD   9
  ------------------------------------------------------------------------------

     CUMULATIVE VOLUMES      L**3       RATES FOR THIS TIME STEP      L**3/T
     ------------------                 ------------------------

           IN:                                      IN:
           ---                                      ---
             STORAGE     =   372104608.0000               STORAGE     =          47.4828
       CONSTANT HEAD     =           0.0000         CONSTANT HEAD     =           0.0000
     HEAD DEP BOUNDS     =     6030661.5000       HEAD DEP BOUNDS     =           0.2854
      STREAM LEAKAGE     =   270654048.0000        STREAM LEAKAGE     =          12.7713
        UZF RECHARGE     =       73223.9531          UZF RECHARGE     =           0.0000
               GW ET     =           0.0000                 GW ET     =           0.0000
     SURFACE LEAKAGE     =           0.0000       SURFACE LEAKAGE     =           0.0000
           AG WELLS      =           0.0000             AG WELLS      =           0.0000

                TOTAL IN =   648862528.0000                  TOTAL IN =          60.5395

          OUT:                                     OUT:
          ----                                     ----
             STORAGE     =    47797688.0000               STORAGE     =           0.7784
       CONSTANT HEAD     =           0.0000         CONSTANT HEAD     =           0.0000
     HEAD DEP BOUNDS     =     6242960.0000       HEAD DEP BOUNDS     =           0.2968
      STREAM LEAKAGE     =   212454864.0000        STREAM LEAKAGE     =          10.0495
        UZF RECHARGE     =           0.0000          UZF RECHARGE     =           0.0000
               GW ET     =    12869999.0000                 GW ET     =           0.9823
     SURFACE LEAKAGE     =           0.0000       SURFACE LEAKAGE     =           0.0000
           AG WELLS      =   369500704.0000             AG WELLS      =          48.4326

               TOTAL OUT =   648866176.0000                 TOTAL OUT =          60.5397

                IN - OUT =       -3648.0000                  IN - OUT =      -1.6403E-04

     PERCENT DISCREPANCY =          -0.00         PERCENT DISCREPANCY =          -0.00






         TIME SUMMARY AT END OF TIME STEP   30 IN STRESS PERIOD    9
                    SECONDS     MINUTES      HOURS       DAYS        YEARS
                    -----------------------------------------------------------
   TIME STEP LENGTH  87667.      1461.1      24.352      1.0147     2.77799E-03
 STRESS PERIOD TIME 2.63000E+06  43833.      730.56      30.440     8.33397E-02
         TOTAL TIME 2.11264E+07 3.52107E+05  5868.4      244.52     0.66945    
1
1
                            STRESS PERIOD NO.   10, LENGTH =   2630000.    
                            -----------------------------------------------

                              NUMBER OF TIME STEPS =    30

                               MULTIPLIER FOR DELT =     1.000

                            INITIAL TIME STEP SIZE =   87666.66    

 REUSING NON-PARAMETER GHB CELLS FROM LAST STRESS PERIOD

      2 GHB CELLS

 REUSING STREAM SEGMENT DATA FROM LAST STRESS PERIOD



            AREAL INFILTRATION RATE
 READING ON UNIT   19 WITH FORMAT: (10F4.0)            

            1           2           3           4           5           6           7           8           9          10
 ........................................................................................................................
   1   1.2000E-09   0.000       0.000       0.000       0.000       0.000       0.000       0.000       0.000       0.000    
   2   2.1000E-09  2.0000E-09  8.0000E-10  8.5000E-09   0.000       0.000       0.000       0.000       0.000       0.000    
   3   5.0000E-10  1.1000E-09  8.8000E-09  5.5000E-09   0.000       0.000       0.000       0.000       0.000       0.000    
   4   8.5000E-09  1.1000E-09  1.1000E-09  1.1000E-09  2.0000E-09   0.000       0.000       0.000       0.000       0.000    
   5   8.5000E-09  1.1000E-09  1.1000E-09  1.1000E-09  1.1000E-09   0.000       0.000       0.000       0.000       0.000    
   6   8.5000E-09  5.2000E-09  2.1000E-09  1.1000E-09  1.5000E-09   0.000       0.000       0.000       0.000       0.000    
   7   8.5000E-09  5.2000E-09  2.1000E-09  1.2000E-09  2.0000E-09   0.000       0.000       0.000       0.000       0.000    
   8   5.0000E-10  5.2000E-09  2.1000E-09  1.2000E-09  5.0000E-09   0.000       0.000       0.000       0.000       0.000    
   9   5.0000E-10  5.2000E-09  2.1000E-09  1.2000E-09  5.0000E-09   0.000       0.000       0.000       0.000       0.000    
  10   5.0000E-10  5.2000E-09  2.1000E-09  1.2000E-09  5.8000E-09   0.000       0.000       0.000       0.000       0.000    
  11   1.0000E-10  1.1000E-09  1.1000E-09  1.2000E-09  5.0000E-09   0.000       0.000       0.000       0.000       0.000    
  12   1.1000E-09  1.1000E-09  1.1000E-09  1.1000E-09  2.0000E-09   0.000       0.000       0.000       0.000       0.000    
  13   1.1000E-09  2.2000E-09  2.2000E-09  2.1000E-09  1.0000E-09   0.000       0.000       0.000       0.000       0.000    
  14   2.0000E-10  5.5000E-09  5.5000E-09  5.2000E-09  1.0000E-09   0.000       0.000       0.000       0.000       0.000    
  15    0.000      8.8000E-09  8.8000E-09   0.000       0.000       0.000       0.000       0.000       0.000       0.000    

                  ET RATE =  7.500000E-08

 USING ET EXTINCTION DEPTH FROM PREVIOUS STRESS PERIOD. CURRENT PERIOD IS:      10

 USING EXTINCTION WATER CONTENT FROM PREVIOUS STRESS PERIOD. CURRENT PERIOD IS:      10

 USING AIR ENTRY PRESSURE FROM PREVIOUS STRESS PERIOD. CURRENT PERIOD IS:      10

 USING ROOT PRESSURE HEAD FROM PREVIOUS STRESS PERIOD. CURRENT PERIOD IS:      10

 USING ROOT ACTIVITY FROM PREVIOUS STRESS PERIOD. CURRENT PERIOD IS:      10

 PROCESSING AG STRESS PERIOD DATA

 READING AG STRESS PERIOD DATA

 READING IRRIGATION WELL

 END PROCESSING AG STRESS PERIOD DATA OPTIONS
 
 SOLVING FOR HEAD 
                                                   Max.-Head-Change                         Max.-Flux-Residual
  Residual-Control   Outer-Iter.   Inner-Iter.     Column Row Layer    Maximum-Head-Change  Column Row Layer    Maximum-Flux-Residual          L2-NORM 
          0                 1           2             5    8     1       0.6740046723E-01       5    8    1         0.3676297707E+01      0.9982985210E+01
          0                 2           2             5    8     1      -0.6556103990E-02       5    8    1        -0.3676211868E+00      0.9982496718E+00
          0                 3           2             5    8     1       0.4464454999E-03       5    8    1         0.2573345732E-01      0.6987542326E-01
          0                 4           1             5    8     1      -0.1776652767E-04       5    8    1        -0.1052618695E-02      0.2858028858E-02

    ------------------------------------------------
       NWT REQUIRED            4 OUTER ITERATIONS 
       AND A TOTAL OF          7 INNER ITERATIONS.
    ------------------------------------------------

 NO OUTPUT CONTROL FOR STRESS PERIOD   10   TIME STEP    1
 
 SOLVING FOR HEAD 
                                                   Max.-Head-Change                         Max.-Flux-Residual
  Residual-Control   Outer-Iter.   Inner-Iter.     Column Row Layer    Maximum-Head-Change  Column Row Layer    Maximum-Flux-Residual          L2-NORM 
          0                 1           2             5    6     1       0.6430255756E-01       5    8    1         0.3501741513E+01      0.9668122592E+01
          0                 2           2             5    6     1      -0.6254765126E-02       5    8    1        -0.3501660842E+00      0.9667784159E+00
          0                 3           2             5    6     1       0.4259254056E-03       5    8    1         0.2451159473E-01      0.6767345648E-01
          0                 4           1             5    6     1      -0.1694998321E-04       5    8    1        -0.1002644475E-02      0.2768007531E-02

    ------------------------------------------------
       NWT REQUIRED            4 OUTER ITERATIONS 
       AND A TOTAL OF          7 INNER ITERATIONS.
    ------------------------------------------------

 NO OUTPUT CONTROL FOR STRESS PERIOD   10   TIME STEP    2
 
 SOLVING FOR HEAD 
                                                   Max.-Head-Change                         Max.-Flux-Residual
  Residual-Control   Outer-Iter.   Inner-Iter.     Column Row Layer    Maximum-Head-Change  Column Row Layer    Maximum-Flux-Residual          L2-NORM 
          0                 1           2             5    6     1       0.6149684635E-01       5    6    1         0.3341830140E+01      0.9360523902E+01
          0                 2           2             5    6     1      -0.5981854449E-02       5    6    1        -0.3341752612E+00      0.9360213728E+00
          0                 3           2             5    6     1       0.4073411168E-03       5    6    1         0.2339223367E-01      0.6552047917E-01
          0                 4           1             5    6     1      -0.1621049802E-04       5    6    1        -0.9568625535E-03      0.2679949731E-02

    ------------------------------------------------
       NWT REQUIRED            4 OUTER ITERATIONS 
       AND A TOTAL OF          7 INNER ITERATIONS.
    ------------------------------------------------

 NO OUTPUT CONTROL FOR STRESS PERIOD   10   TIME STEP    3
 
 SOLVING FOR HEAD 
                                                   Max.-Head-Change                         Max.-Flux-Residual
  Residual-Control   Outer-Iter.   Inner-Iter.     Column Row Layer    Maximum-Head-Change  Column Row Layer    Maximum-Flux-Residual          L2-NORM 
          0                 1           2             5    6     1       0.5885119126E-01       5    6    1         0.3196022805E+01      0.9069488472E+01
          0                 2           2             5    6     1      -0.5724512197E-02       5    6    1        -0.3195950700E+00      0.9069204712E+00
          0                 3           2             5    6     1       0.3898169868E-03       5    6    1         0.2237161471E-01      0.6348350416E-01
          0                 4           1             5    6     1      -0.1551319755E-04       5    6    1        -0.9151192028E-03      0.2596654385E-02

    ------------------------------------------------
       NWT REQUIRED            4 OUTER ITERATIONS 
       AND A TOTAL OF          7 INNER ITERATIONS.
    ------------------------------------------------

 NO OUTPUT CONTROL FOR STRESS PERIOD   10   TIME STEP    4
 
 SOLVING FOR HEAD 
                                                   Max.-Head-Change                         Max.-Flux-Residual
  Residual-Control   Outer-Iter.   Inner-Iter.     Column Row Layer    Maximum-Head-Change  Column Row Layer    Maximum-Flux-Residual          L2-NORM 
          0                 1           2             5    6     1       0.5635481183E-01       5    6    1         0.3058530350E+01      0.8793820970E+01
          0                 2           2             5    6     1      -0.5481689785E-02       5    6    1        -0.3058463246E+00      0.8793561771E+00
          0                 3           2             5    6     1       0.3732816097E-03       5    6    1         0.2140919738E-01      0.6155405797E-01
          0                 4           1             5    6     1      -0.1485524032E-04       5    6    1        -0.8757562935E-03      0.2517754963E-02

    ------------------------------------------------
       NWT REQUIRED            4 OUTER ITERATIONS 
       AND A TOTAL OF          7 INNER ITERATIONS.
    ------------------------------------------------

 NO OUTPUT CONTROL FOR STRESS PERIOD   10   TIME STEP    5
 
 SOLVING FOR HEAD 
                                                   Max.-Head-Change                         Max.-Flux-Residual
  Residual-Control   Outer-Iter.   Inner-Iter.     Column Row Layer    Maximum-Head-Change  Column Row Layer    Maximum-Flux-Residual          L2-NORM 
          0                 1           2             5    6     1       0.5399760384E-01       5    6    1         0.2928785862E+01      0.8532412826E+01
          0                 2           2             5    6     1      -0.5252404396E-02       5    6    1        -0.2928723370E+00      0.8532175975E+00
          0                 3           2             5    6     1       0.3576680597E-03       5    6    1         0.2050101349E-01      0.5972438852E-01
          0                 4           1             5    6     1      -0.1423396389E-04       5    6    1        -0.8386115601E-03      0.2442909581E-02

    ------------------------------------------------
       NWT REQUIRED            4 OUTER ITERATIONS 
       AND A TOTAL OF          7 INNER ITERATIONS.
    ------------------------------------------------

 NO OUTPUT CONTROL FOR STRESS PERIOD   10   TIME STEP    6
 
 SOLVING FOR HEAD 
                                                   Max.-Head-Change                         Max.-Flux-Residual
  Residual-Control   Outer-Iter.   Inner-Iter.     Column Row Layer    Maximum-Head-Change  Column Row Layer    Maximum-Flux-Residual          L2-NORM 
          0                 1           2             5    7     1       0.5265091855E-01       5    6    1         0.2806281733E+01      0.8284263755E+01
          0                 2           2             5    7     1      -0.5121454543E-02       5    6    1        -0.2806223501E+00      0.8284081843E+00
          0                 3           2             5    7     1       0.3487503824E-03       5    6    1         0.1964351001E-01      0.5798777953E-01
          0                 4           1             5    7     1      -0.1387918495E-04       5    6    1        -0.8035396161E-03      0.2371903668E-02

    ------------------------------------------------
       NWT REQUIRED            4 OUTER ITERATIONS 
       AND A TOTAL OF          7 INNER ITERATIONS.
    ------------------------------------------------

 NO OUTPUT CONTROL FOR STRESS PERIOD   10   TIME STEP    7
 
 SOLVING FOR HEAD 
                                                   Max.-Head-Change                         Max.-Flux-Residual
  Residual-Control   Outer-Iter.   Inner-Iter.     Column Row Layer    Maximum-Head-Change  Column Row Layer    Maximum-Flux-Residual          L2-NORM 
          0                 1           2             5    7     1       0.5140523954E-01       5    7    1         0.2736164020E+01      0.8048456553E+01
          0                 2           2             5    7     1      -0.5000289708E-02       5    7    1        -0.2736138332E+00      0.8048259039E+00
          0                 3           2             5    7     1       0.3404994495E-03       5    7    1         0.1915288282E-01      0.5633709787E-01
          0                 4           1             5    7     1      -0.1355087281E-04       5    7    1        -0.7834730832E-03      0.2304407588E-02

    ------------------------------------------------
       NWT REQUIRED            4 OUTER ITERATIONS 
       AND A TOTAL OF          7 INNER ITERATIONS.
    ------------------------------------------------

 NO OUTPUT CONTROL FOR STRESS PERIOD   10   TIME STEP    8
 
 SOLVING FOR HEAD 
                                                   Max.-Head-Change                         Max.-Flux-Residual
  Residual-Control   Outer-Iter.   Inner-Iter.     Column Row Layer    Maximum-Head-Change  Column Row Layer    Maximum-Flux-Residual          L2-NORM 
          0                 1           2             5    7     1       0.5018558240E-01       5    7    1         0.2671437921E+01      0.7824122401E+01
          0                 2           2             5    7     1      -0.4881655389E-02       5    7    1        -0.2671415648E+00      0.7823942439E+00
          0                 3           2             5    7     1       0.3324208429E-03       5    7    1         0.1869982060E-01      0.5476689689E-01
          0                 4           1             5    7     1      -0.1322941790E-04       5    7    1        -0.7649428424E-03      0.2240177437E-02

    ------------------------------------------------
       NWT REQUIRED            4 OUTER ITERATIONS 
       AND A TOTAL OF          7 INNER ITERATIONS.
    ------------------------------------------------

 NO OUTPUT CONTROL FOR STRESS PERIOD   10   TIME STEP    9
 
 SOLVING FOR HEAD 
                                                   Max.-Head-Change                         Max.-Flux-Residual
  Residual-Control   Outer-Iter.   Inner-Iter.     Column Row Layer    Maximum-Head-Change  Column Row Layer    Maximum-Flux-Residual          L2-NORM 
          0                 1           2             4    7     1       0.4907591150E-01       5    7    1         0.2608052025E+01      0.7610512765E+01
          0                 2           2             4    7     1      -0.4773735617E-02       5    7    1        -0.2608032750E+00      0.7610348297E+00
          0                 3           2             4    7     1       0.3250716795E-03       5    7    1         0.1825613728E-01      0.5327176180E-01
          0                 4           1             4    7     1      -0.1293700784E-04       5    7    1        -0.7467961716E-03      0.2179027355E-02

    ------------------------------------------------
       NWT REQUIRED            4 OUTER ITERATIONS 
       AND A TOTAL OF          7 INNER ITERATIONS.
    ------------------------------------------------

 NO OUTPUT CONTROL FOR STRESS PERIOD   10   TIME STEP   10
 
 SOLVING FOR HEAD 
                                                   Max.-Head-Change                         Max.-Flux-Residual
  Residual-Control   Outer-Iter.   Inner-Iter.     Column Row Layer    Maximum-Head-Change  Column Row Layer    Maximum-Flux-Residual          L2-NORM 
          0                 1           2             4    7     1       0.4862537750E-01       4    7    1         0.2549849371E+01      0.7406926388E+01
          0                 2           2             4    7     1      -0.4729914995E-02       4    7    1        -0.2549844463E+00      0.7406776166E+00
          0                 3           2             4    7     1       0.3220876178E-03       4    7    1         0.1784880551E-01      0.5184678000E-01
          0                 4           1             4    7     1      -0.1281826915E-04       4    7    1        -0.7301363282E-03      0.2120737236E-02

    ------------------------------------------------
       NWT REQUIRED            4 OUTER ITERATIONS 
       AND A TOTAL OF          7 INNER ITERATIONS.
    ------------------------------------------------

 NO OUTPUT CONTROL FOR STRESS PERIOD   10   TIME STEP   11
 
 SOLVING FOR HEAD 
                                                   Max.-Head-Change                         Max.-Flux-Residual
  Residual-Control   Outer-Iter.   Inner-Iter.     Column Row Layer    Maximum-Head-Change  Column Row Layer    Maximum-Flux-Residual          L2-NORM 
          0                 1           2             4    7     1       0.4814984695E-01       4    7    1         0.2526439493E+01      0.7212691665E+01
          0                 2           2             4    7     1      -0.4683662440E-02       4    7    1        -0.2526436956E+00      0.7212554764E+00
          0                 3           2             4    7     1       0.3189379555E-03       4    7    1         0.1768495066E-01      0.5048727579E-01
          0                 4           1             4    7     1      -0.1269294124E-04       4    7    1        -0.7234346806E-03      0.2065135568E-02

    ------------------------------------------------
       NWT REQUIRED            4 OUTER ITERATIONS 
       AND A TOTAL OF          7 INNER ITERATIONS.
    ------------------------------------------------

 NO OUTPUT CONTROL FOR STRESS PERIOD   10   TIME STEP   12
 
 SOLVING FOR HEAD 
                                                   Max.-Head-Change                         Max.-Flux-Residual
  Residual-Control   Outer-Iter.   Inner-Iter.     Column Row Layer    Maximum-Head-Change  Column Row Layer    Maximum-Flux-Residual          L2-NORM 
          0                 1           2             4    7     1       0.4765204588E-01       4    7    1         0.2501740967E+01      0.7027214057E+01
          0                 2           2             4    7     1      -0.4635243164E-02       4    7    1        -0.2501740533E+00      0.7027088929E+00
          0                 3           2             4    7     1       0.3156407511E-03       4    7    1         0.1751207363E-01      0.4918903179E-01
          0                 4           1             4    7     1      -0.1256174286E-04       4    7    1        -0.7163640128E-03      0.2012030796E-02

    ------------------------------------------------
       NWT REQUIRED            4 OUTER ITERATIONS 
       AND A TOTAL OF          7 INNER ITERATIONS.
    ------------------------------------------------

 NO OUTPUT CONTROL FOR STRESS PERIOD   10   TIME STEP   13
 
 SOLVING FOR HEAD 
                                                   Max.-Head-Change                         Max.-Flux-Residual
  Residual-Control   Outer-Iter.   Inner-Iter.     Column Row Layer    Maximum-Head-Change  Column Row Layer    Maximum-Flux-Residual          L2-NORM 
          0                 1           2             4    7     1       0.4713399061E-01       4    7    1         0.2475865896E+01      0.6849930807E+01
          0                 2           2             4    7     1      -0.4584853336E-02       4    7    1        -0.2475867319E+00      0.6849816964E+00
          0                 3           2             4    7     1       0.3122093626E-03       4    7    1         0.1733095928E-01      0.4794818530E-01
          0                 4           1             4    7     1      -0.1242520498E-04       4    7    1        -0.7089564294E-03      0.1961290747E-02

    ------------------------------------------------
       NWT REQUIRED            4 OUTER ITERATIONS 
       AND A TOTAL OF          7 INNER ITERATIONS.
    ------------------------------------------------

 NO OUTPUT CONTROL FOR STRESS PERIOD   10   TIME STEP   14
 
 SOLVING FOR HEAD 
                                                   Max.-Head-Change                         Max.-Flux-Residual
  Residual-Control   Outer-Iter.   Inner-Iter.     Column Row Layer    Maximum-Head-Change  Column Row Layer    Maximum-Flux-Residual          L2-NORM 
          0                 1           2             4    7     1       0.4659822384E-01       4    7    1         0.2448955103E+01      0.6680327624E+01
          0                 2           2             4    7     1      -0.4532740328E-02       4    7    1        -0.2448958160E+00      0.6680223610E+00
          0                 3           2             4    7     1       0.3086606358E-03       4    7    1         0.1714259355E-01      0.4676105994E-01
          0                 4           1             4    7     1      -0.1228399776E-04       4    7    1        -0.7012522701E-03      0.1912739995E-02

    ------------------------------------------------
       NWT REQUIRED            4 OUTER ITERATIONS 
       AND A TOTAL OF          7 INNER ITERATIONS.
    ------------------------------------------------

 NO OUTPUT CONTROL FOR STRESS PERIOD   10   TIME STEP   15
 
 SOLVING FOR HEAD 
                                                   Max.-Head-Change                         Max.-Flux-Residual
  Residual-Control   Outer-Iter.   Inner-Iter.     Column Row Layer    Maximum-Head-Change  Column Row Layer    Maximum-Flux-Residual          L2-NORM 
          0                 1           2             4    7     1       0.4604673162E-01       4    7    1         0.2421118700E+01      0.6517932000E+01
          0                 2           2             4    7     1      -0.4479097361E-02       4    7    1        -0.2421123192E+00      0.6517836751E+00
          0                 3           2             4    7     1       0.3050077271E-03       4    7    1         0.1694774734E-01      0.4562435943E-01
          0                 4           1             4    7     1      -0.1213864490E-04       4    7    1        -0.6932830349E-03      0.1866253304E-02

    ------------------------------------------------
       NWT REQUIRED            4 OUTER ITERATIONS 
       AND A TOTAL OF          7 INNER ITERATIONS.
    ------------------------------------------------

 NO OUTPUT CONTROL FOR STRESS PERIOD   10   TIME STEP   16
 
 SOLVING FOR HEAD 
                                                   Max.-Head-Change                         Max.-Flux-Residual
  Residual-Control   Outer-Iter.   Inner-Iter.     Column Row Layer    Maximum-Head-Change  Column Row Layer    Maximum-Flux-Residual          L2-NORM 
          0                 1           2             4    7     1       0.4548149469E-01       4    7    1         0.2392466941E+01      0.6362305947E+01
          0                 2           2             4    7     1      -0.4424117132E-02       4    7    1        -0.2392472686E+00      0.6362219015E+00
          0                 3           2             4    7     1       0.3012637590E-03       4    7    1         0.1674719252E-01      0.4453504830E-01
          0                 4           1             4    7     1      -0.1198966921E-04       4    7    1        -0.6850803634E-03      0.1821702518E-02

    ------------------------------------------------
       NWT REQUIRED            4 OUTER ITERATIONS 
       AND A TOTAL OF          7 INNER ITERATIONS.
    ------------------------------------------------

 NO OUTPUT CONTROL FOR STRESS PERIOD   10   TIME STEP   17
 
 SOLVING FOR HEAD 
                                                   Max.-Head-Change                         Max.-Flux-Residual
  Residual-Control   Outer-Iter.   Inner-Iter.     Column Row Layer    Maximum-Head-Change  Column Row Layer    Maximum-Flux-Residual          L2-NORM 
          0                 1           2             4    7     1       0.4490436259E-01       4    7    1         0.2363102526E+01      0.6213044856E+01
          0                 2           2             4    7     1      -0.4367979581E-02       4    7    1        -0.2363109359E+00      0.6212965178E+00
          0                 3           2             4    7     1       0.2974409835E-03       4    7    1         0.1654164811E-01      0.4349029952E-01
          0                 4           1             4    7     1      -0.1183755779E-04       4    7    1        -0.6766735883E-03      0.1778969446E-02

    ------------------------------------------------
       NWT REQUIRED            4 OUTER ITERATIONS 
       AND A TOTAL OF          7 INNER ITERATIONS.
    ------------------------------------------------

 NO OUTPUT CONTROL FOR STRESS PERIOD   10   TIME STEP   18
 
 SOLVING FOR HEAD 
                                                   Max.-Head-Change                         Max.-Flux-Residual
  Residual-Control   Outer-Iter.   Inner-Iter.     Column Row Layer    Maximum-Head-Change  Column Row Layer    Maximum-Flux-Residual          L2-NORM 
          0                 1           2             4    7     1       0.4431678937E-01       4    7    1         0.2333106781E+01      0.6069775330E+01
          0                 2           2             4    7     1      -0.4320050499E-02       4    7    1        -0.2338943324E+00      0.6070012696E+00
          0                 3           2             4    7     1       0.2941771611E-03       4    7    1         0.1637248381E-01      0.4248965043E-01
          0                 4           1             4    7     1      -0.1170768707E-04       4    7    1        -0.6697547649E-03      0.1738040178E-02

    ------------------------------------------------
       NWT REQUIRED            4 OUTER ITERATIONS 
       AND A TOTAL OF          7 INNER ITERATIONS.
    ------------------------------------------------

 NO OUTPUT CONTROL FOR STRESS PERIOD   10   TIME STEP   19
 
 SOLVING FOR HEAD 
                                                   Max.-Head-Change                         Max.-Flux-Residual
  Residual-Control   Outer-Iter.   Inner-Iter.     Column Row Layer    Maximum-Head-Change  Column Row Layer    Maximum-Flux-Residual          L2-NORM 
          0                 1           2             4    7     1       0.4370069324E-01       4    7    1         0.2302092432E+01      0.5932123827E+01
          0                 2           2             4    7     1      -0.4250899198E-02       4    7    1        -0.2302101851E+00      0.5932057106E+00
          0                 3           2             4    7     1       0.2894682061E-03       4    7    1         0.1611459292E-01      0.4152396381E-01
          0                 4           1             4    7     1      -0.1152031310E-04       4    7    1        -0.6592070151E-03      0.1698550612E-02

    ------------------------------------------------
       NWT REQUIRED            4 OUTER ITERATIONS 
       AND A TOTAL OF          7 INNER ITERATIONS.
    ------------------------------------------------

 NO OUTPUT CONTROL FOR STRESS PERIOD   10   TIME STEP   20
 
 SOLVING FOR HEAD 
                                                   Max.-Head-Change                         Max.-Flux-Residual
  Residual-Control   Outer-Iter.   Inner-Iter.     Column Row Layer    Maximum-Head-Change  Column Row Layer    Maximum-Flux-Residual          L2-NORM 
          0                 1           2             4    7     1       0.4308706857E-01       4    7    1         0.2270575202E+01      0.5799771006E+01
          0                 2           2             4    7     1      -0.4191211370E-02       4    7    1        -0.2270585348E+00      0.5799710601E+00
          0                 3           2             4    7     1       0.2854036755E-03       4    7    1         0.1589397663E-01      0.4059763808E-01
          0                 4           1             4    7     1      -0.1135858196E-04       4    7    1        -0.6501837995E-03      0.1660662095E-02

    ------------------------------------------------
       NWT REQUIRED            4 OUTER ITERATIONS 
       AND A TOTAL OF          7 INNER ITERATIONS.
    ------------------------------------------------

 NO OUTPUT CONTROL FOR STRESS PERIOD   10   TIME STEP   21
 
 SOLVING FOR HEAD 
                                                   Max.-Head-Change                         Max.-Flux-Residual
  Residual-Control   Outer-Iter.   Inner-Iter.     Column Row Layer    Maximum-Head-Change  Column Row Layer    Maximum-Flux-Residual          L2-NORM 
          0                 1           2             4    7     1       0.4246785259E-01       4    7    1         0.2238694599E+01      0.5672442012E+01
          0                 2           2             4    7     1      -0.4130979491E-02       4    7    1        -0.2238705361E+00      0.5672386206E+00
          0                 3           2             4    7     1       0.2813020983E-03       4    7    1         0.1567081603E-01      0.3970631712E-01
          0                 4           1             4    7     1      -0.1119537650E-04       4    7    1        -0.6410565163E-03      0.1624199120E-02

    ------------------------------------------------
       NWT REQUIRED            4 OUTER ITERATIONS 
       AND A TOTAL OF          7 INNER ITERATIONS.
    ------------------------------------------------

 NO OUTPUT CONTROL FOR STRESS PERIOD   10   TIME STEP   22
 
 SOLVING FOR HEAD 
                                                   Max.-Head-Change                         Max.-Flux-Residual
  Residual-Control   Outer-Iter.   Inner-Iter.     Column Row Layer    Maximum-Head-Change  Column Row Layer    Maximum-Flux-Residual          L2-NORM 
          0                 1           2             4    7     1       0.4184435800E-01       4    7    1         0.2206523962E+01      0.5549854462E+01
          0                 2           2             4    7     1      -0.4070358920E-02       4    7    1        -0.2206535239E+00      0.5549905446E+00
          0                 3           2             4    7     1       0.2771740542E-03       4    7    1         0.1544562460E-01      0.3884896803E-01
          0                 4           1             4    7     1      -0.1103111785E-04       4    7    1        -0.6318461833E-03      0.1589140715E-02

    ------------------------------------------------
       NWT REQUIRED            4 OUTER ITERATIONS 
       AND A TOTAL OF          7 INNER ITERATIONS.
    ------------------------------------------------

 NO OUTPUT CONTROL FOR STRESS PERIOD   10   TIME STEP   23
 
 SOLVING FOR HEAD 
                                                   Max.-Head-Change                         Max.-Flux-Residual
  Residual-Control   Outer-Iter.   Inner-Iter.     Column Row Layer    Maximum-Head-Change  Column Row Layer    Maximum-Flux-Residual          L2-NORM 
          0                 1           2             4    7     1       0.4121752198E-01       4    7    1         0.2174122710E+01      0.5431737891E+01
          0                 2           2             4    7     1      -0.4009357912E-02       4    7    1        -0.2174134414E+00      0.5431690900E+00
          0                 3           2             4    7     1       0.2730201053E-03       4    7    1         0.1521881833E-01      0.3802147118E-01
          0                 4           1             4    7     1      -0.1086582823E-04       4    7    1        -0.6225697848E-03      0.1555308707E-02

    ------------------------------------------------
       NWT REQUIRED            4 OUTER ITERATIONS 
       AND A TOTAL OF          7 INNER ITERATIONS.
    ------------------------------------------------

 NO OUTPUT CONTROL FOR STRESS PERIOD   10   TIME STEP   24
 
 SOLVING FOR HEAD 
                                                   Max.-Head-Change                         Max.-Flux-Residual
  Residual-Control   Outer-Iter.   Inner-Iter.     Column Row Layer    Maximum-Head-Change  Column Row Layer    Maximum-Flux-Residual          L2-NORM 
          0                 1           2             4    7     1       0.4058869390E-01       4    7    1         0.2141558430E+01      0.5317847120E+01
          0                 2           2             4    7     1      -0.3948190629E-02       4    7    1        -0.2141570477E+00      0.5317803921E+00
          0                 3           2             4    7     1       0.2688548348E-03       4    7    1         0.1499087034E-01      0.3722428562E-01
          0                 4           1             4    7     1      -0.1070008847E-04       4    7    1        -0.6132467111E-03      0.1522696863E-02

    ------------------------------------------------
       NWT REQUIRED            4 OUTER ITERATIONS 
       AND A TOTAL OF          7 INNER ITERATIONS.
    ------------------------------------------------

 NO OUTPUT CONTROL FOR STRESS PERIOD   10   TIME STEP   25
 
 SOLVING FOR HEAD 
                                                   Max.-Head-Change                         Max.-Flux-Residual
  Residual-Control   Outer-Iter.   Inner-Iter.     Column Row Layer    Maximum-Head-Change  Column Row Layer    Maximum-Flux-Residual          L2-NORM 
          0                 1           2             4    7     1       0.3995874564E-01       4    7    1         0.2108882091E+01      0.5207990542E+01
          0                 2           2             4    7     1      -0.3886914269E-02       4    7    1        -0.2108894406E+00      0.5207950551E+00
          0                 3           2             4    7     1       0.2646821375E-03       4    7    1         0.1476213750E-01      0.3645528810E-01
          0                 4           1             4    7     1      -0.1053405271E-04       4    7    1        -0.6038915149E-03      0.1491250092E-02

    ------------------------------------------------
       NWT REQUIRED            4 OUTER ITERATIONS 
       AND A TOTAL OF          7 INNER ITERATIONS.
    ------------------------------------------------

 NO OUTPUT CONTROL FOR STRESS PERIOD   10   TIME STEP   26
 
 SOLVING FOR HEAD 
                                                   Max.-Head-Change                         Max.-Flux-Residual
  Residual-Control   Outer-Iter.   Inner-Iter.     Column Row Layer    Maximum-Head-Change  Column Row Layer    Maximum-Flux-Residual          L2-NORM 
          0                 1           2             4    7     1       0.3932876558E-01       4    7    1         0.2076154827E+01      0.5101941672E+01
          0                 2           2             4    7     1      -0.3825634717E-02       4    7    1        -0.2076167345E+00      0.5101905072E+00
          0                 3           2             4    7     1       0.2605092240E-03       4    7    1         0.1453304776E-01      0.3571300415E-01
          0                 4           1             4    7     1      -0.1036800877E-04       4    7    1        -0.5945217501E-03      0.1460877589E-02

    ------------------------------------------------
       NWT REQUIRED            4 OUTER ITERATIONS 
       AND A TOTAL OF          7 INNER ITERATIONS.
    ------------------------------------------------

 NO OUTPUT CONTROL FOR STRESS PERIOD   10   TIME STEP   27
 
 SOLVING FOR HEAD 
                                                   Max.-Head-Change                         Max.-Flux-Residual
  Residual-Control   Outer-Iter.   Inner-Iter.     Column Row Layer    Maximum-Head-Change  Column Row Layer    Maximum-Flux-Residual          L2-NORM 
          0                 1           2             4    7     1       0.3869962378E-01       4    7    1         0.2043426023E+01      0.4999510881E+01
          0                 2           2             4    7     1      -0.3764436616E-02       4    7    1        -0.2043438684E+00      0.4999477090E+00
          0                 3           2             4    7     1       0.2563418577E-03       4    7    1         0.1430394690E-01      0.3499602097E-01
          0                 4           1             4    7     1      -0.1020218531E-04       4    7    1        -0.5851515045E-03      0.1431563238E-02

    ------------------------------------------------
       NWT REQUIRED            4 OUTER ITERATIONS 
       AND A TOTAL OF          7 INNER ITERATIONS.
    ------------------------------------------------

 NO OUTPUT CONTROL FOR STRESS PERIOD   10   TIME STEP   28
 
 SOLVING FOR HEAD 
                                                   Max.-Head-Change                         Max.-Flux-Residual
  Residual-Control   Outer-Iter.   Inner-Iter.     Column Row Layer    Maximum-Head-Change  Column Row Layer    Maximum-Flux-Residual          L2-NORM 
          0                 1           2             4    7     1       0.3807211614E-01       4    7    1         0.2010740550E+01      0.4900541060E+01
          0                 2           2             4    7     1      -0.3703397395E-02       4    7    1        -0.2010753301E+00      0.4900509857E+00
          0                 3           2             4    7     1       0.2521853120E-03       4    7    1         0.1407514907E-01      0.3430323331E-01
          0                 4           1             4    7     1      -0.1003679254E-04       4    7    1        -0.5757936576E-03      0.1403199636E-02

    ------------------------------------------------
       NWT REQUIRED            4 OUTER ITERATIONS 
       AND A TOTAL OF          7 INNER ITERATIONS.
    ------------------------------------------------

 NO OUTPUT CONTROL FOR STRESS PERIOD   10   TIME STEP   29
 
 SOLVING FOR HEAD 
                                                   Max.-Head-Change                         Max.-Flux-Residual
  Residual-Control   Outer-Iter.   Inner-Iter.     Column Row Layer    Maximum-Head-Change  Column Row Layer    Maximum-Flux-Residual          L2-NORM 
          0                 1           2             4    7     1       0.3744683666E-01       4    7    1         0.1978132623E+01      0.4804834930E+01
          0                 2           2             4    7     1      -0.3642574839E-02       4    7    1        -0.1978145417E+00      0.4804806318E+00
          0                 3           2             4    7     1       0.2480435202E-03       4    7    1         0.1384689371E-01      0.3363334307E-01
          0                 4           1             4    7     1      -0.9871986689E-05       4    7    1        -0.5664579994E-03      0.1375826630E-02

    ------------------------------------------------
       NWT REQUIRED            4 OUTER ITERATIONS 
       AND A TOTAL OF          7 INNER ITERATIONS.
    ------------------------------------------------

 NO OUTPUT CONTROL FOR STRESS PERIOD   10   TIME STEP   30



 STREAM LISTING     PERIOD     10   STEP       30

 LAYER ROW COL. STREAM  RCH.  FLOW INTO     FLOW TO   FLOW OUT OF   OVRLND.     DIRECT     STREAM       STREAM     STREAM     STREAM   STREAMBED  STREAMBED
                SEG.NO.  NO.  STRM. RCH.    AQUIFER    STRM. RCH.    RUNOFF     PRECIP       ET          HEAD       DEPTH      WIDTH   CONDCTNC.   GRADIENT

   1    1    1     1     1    4.7000E+01  3.2684E-01   4.6673E+01  0.000E+00  0.000E+00  0.000E+00  1.09443E+03  1.380E+00  1.658E+01  7.462E-02  1.460E+00
   1    2    2     1     2    4.6673E+01  5.0637E-01   4.6166E+01  0.000E+00  0.000E+00  0.000E+00  1.08944E+03  1.377E+00  1.653E+01  1.157E-01  1.459E+00
   1    3    3     1     3    4.6166E+01  4.3205E-01   4.5734E+01  0.000E+00  0.000E+00  0.000E+00  1.08379E+03  1.374E+00  1.646E+01  9.878E-02  1.458E+00
   1    3    4     1     4    4.5734E+01  3.9802E-01   4.5336E+01  0.000E+00  0.000E+00  0.000E+00  1.07878E+03  1.371E+00  1.641E+01  9.105E-02  1.457E+00
   1    4    5     2     1    4.3336E+01  3.6469E-01   4.2972E+01  0.000E+00  0.000E+00  0.000E+00  1.07361E+03  1.676E+00  1.200E+01  7.800E-02  1.559E+00
   1    5    6     2     2    4.2972E+01  2.8008E-01   4.2692E+01  0.000E+00  0.000E+00  0.000E+00  1.06818E+03  1.668E+00  1.200E+01  6.000E-02  1.556E+00
   1    6    6     2     3    4.2692E+01  2.7969E-01   4.2412E+01  0.000E+00  0.000E+00  0.000E+00  1.06345E+03  1.661E+00  1.200E+01  6.000E-02  1.554E+00
   1    7    6     2     4    4.2412E+01  2.7930E-01   4.2133E+01  0.000E+00  0.000E+00  0.000E+00  1.05873E+03  1.655E+00  1.200E+01  6.000E-02  1.552E+00
   1    8    6     2     5    4.2133E+01  2.7890E-01   4.1854E+01  0.000E+00  0.000E+00  0.000E+00  1.05401E+03  1.648E+00  1.200E+01  6.000E-02  1.549E+00
   1    3    5     3     1    2.0000E+00  2.8252E-01   1.7175E+00  0.000E+00  0.000E+00  0.000E+00  1.07555E+03  1.909E+00  9.636E+00  7.227E-02  1.955E+00
   1    3    6     3     2    1.7175E+00  2.4905E-01   1.4684E+00  0.000E+00  0.000E+00  0.000E+00  1.07264E+03  1.727E+00  8.909E+00  6.682E-02  1.864E+00
   1    3    7     3     3    1.4684E+00  1.9718E-01   1.2712E+00  0.000E+00  0.000E+00  0.000E+00  1.06987E+03  1.555E+00  8.218E+00  5.547E-02  1.777E+00
   1    4    8     3     4    1.2712E+00  2.2567E-01   1.0456E+00  0.000E+00  0.000E+00  0.000E+00  1.06682E+03  1.364E+00  7.455E+00  6.709E-02  1.682E+00
   1    5    8     3     5    1.0456E+00  1.5790E-01   8.8768E-01  0.000E+00  0.000E+00  0.000E+00  1.06362E+03  1.164E+00  6.655E+00  4.991E-02  1.582E+00
   1    6    8     3     6    8.8768E-01  5.5980E-02   8.3170E-01  0.000E+00  0.000E+00  0.000E+00  1.06158E+03  1.036E+00  6.145E+00  1.844E-02  1.518E+00
   1    5   10     4     1    1.0000E+01  9.0919E-02   9.9091E+00  0.000E+00  0.000E+00  0.000E+00  1.07836E+03  6.368E-01  1.000E+01  2.500E-02  1.212E+00
   1    5    9     4     2    9.9091E+00  1.8158E-01   9.7275E+00  0.000E+00  0.000E+00  0.000E+00  1.07154E+03  6.315E-01  1.000E+01  5.000E-02  1.211E+00
   1    6    8     4     3    9.7275E+00  1.2689E-01   9.6006E+00  0.000E+00  0.000E+00  0.000E+00  1.06381E+03  6.256E-01  1.000E+01  3.500E-02  1.209E+00
   1    6    8     5     1    1.0432E+01  2.2686E-01   1.0205E+01  0.000E+00  0.000E+00  0.000E+00  1.05868E+03  6.790E-01  1.542E+01  6.166E-02  1.226E+00
   1    7    7     5     2    1.0205E+01  2.7894E-01   9.9265E+00  0.000E+00  0.000E+00  0.000E+00  1.05417E+03  6.732E-01  1.519E+01  7.594E-02  1.224E+00
   1    8    7     5     3    9.9265E+00  1.9221E-01   9.7343E+00  0.000E+00  0.000E+00  0.000E+00  1.04992E+03  6.676E-01  1.497E+01  5.241E-02  1.223E+00
   1    8    6     5     4    9.7343E+00  1.3577E-01   9.5985E+00  0.000E+00  0.000E+00  0.000E+00  1.04691E+03  6.637E-01  1.482E+01  3.706E-02  1.221E+00
   1    9    6     6     1    5.1452E+01  2.9278E-01   5.1159E+01  0.000E+00  0.000E+00  0.000E+00  1.04461E+03  1.880E+00  1.200E+01  6.000E-02  1.627E+00
   1   10    7     6     2    5.1159E+01  2.9239E-01   5.0867E+01  0.000E+00  0.000E+00  0.000E+00  1.04005E+03  1.873E+00  1.200E+01  6.000E-02  1.624E+00
   1   11    7     6     3    5.0867E+01  2.9200E-01   5.0575E+01  0.000E+00  0.000E+00  0.000E+00  1.03550E+03  1.867E+00  1.200E+01  6.000E-02  1.622E+00
   1   12    7     6     4    5.0575E+01  2.9162E-01   5.0283E+01  0.000E+00  0.000E+00  0.000E+00  1.03095E+03  1.860E+00  1.200E+01  6.000E-02  1.620E+00
   1   13    7     6     5    5.0283E+01  1.2599E-02   5.0271E+01  0.000E+00  0.000E+00  0.000E+00  1.02777E+03  1.857E+00  1.200E+01  2.400E-02  1.750E-01
   1   14    9     7     1    1.5000E+02  1.3307E+00   1.4867E+02  0.000E+00  0.000E+00  0.000E+00  1.03987E+03  2.288E+00  5.529E+01  5.593E-01  7.931E-01
   1   13    8     7     2    1.4867E+02  1.7939E+00   1.4688E+02  0.000E+00  0.000E+00  0.000E+00  1.03478E+03  2.279E+00  5.526E+01  6.148E-01  9.727E-01
   1   13    7     7     3    1.4688E+02  1.3679E+00   1.4551E+02  0.000E+00  0.000E+00  0.000E+00  1.02969E+03  2.271E+00  5.522E+01  5.585E-01  8.164E-01
   1   13    6     8     1    1.9578E+02  9.1747E-01   1.9486E+02  0.000E+00  0.000E+00  0.000E+00  1.02498E+03  3.110E+00  4.509E+01  4.595E-01  6.655E-01
   1   13    5     8     2    1.9486E+02  1.4152E-01   1.9472E+02  0.000E+00  0.000E+00  0.000E+00  1.01873E+03  3.107E+00  4.505E+01  4.591E-01  1.028E-01
   1   13    4     8     3    1.9472E+02 -2.5031E+00   1.9722E+02  0.000E+00  0.000E+00  0.000E+00  1.01249E+03  3.114E+00  4.515E+01  4.601E+00 -1.813E-01
   1   13    3     8     4    1.9722E+02 -3.6198E+00   2.0084E+02  0.000E+00  0.000E+00  0.000E+00  1.00626E+03  3.132E+00  4.541E+01  4.628E+00 -2.607E-01
   1   13    2     8     5    2.0084E+02 -2.5918E+00   2.0343E+02  0.000E+00  0.000E+00  0.000E+00  1.00003E+03  3.150E+00  4.568E+01  4.655E+00 -1.856E-01
   1   13    1     8     6    2.0343E+02 -2.0170E+00   2.0545E+02  0.000E+00  0.000E+00  0.000E+00  9.95039E+02  3.164E+00  4.587E+01  2.805E+00 -2.397E-01





UNSATURATED ZONE PACKAGE VOLUMETRIC BUDGET FOR  TIME STEP    30 STRESS PERIOD   10
  ------------------------------------------------------------------------------



     CUMULATIVE VOLUMES      L**3       RATES FOR THIS TIME STEP      L**3/T
     ------------------                 ------------------------

           IN:                                      IN:
           ---                                      ---
        INFILTRATION =   502676528.4709          INFILTRATION =          15.3539

          OUT:                                     OUT:
          ----                                     ----
              UZF ET =   484334536.7043                UZF ET =          15.3575
        UZF RECHARGE =       73224.0000          UZF RECHARGE =       0.0000E+00

            IN - OUT =    18268767.7666              IN - OUT =      -3.5632E-03

          STORAGE:                                 STORAGE:
          --------                                 --------
      STORAGE CHANGE =    18268756.7289        STORAGE CHANGE =      -3.5634E-03

 PERCENT DISCREPANCY IS DIFFERENCE BETWEEN IN-OUT MINUS CHANGE IN STORAGE
 DIVIDED BY THE AVERAGE OF IN AND OUT TIMES 100

 PERCENT DISCREPANCY =           0.00     PERCENT DISCREPANCY =           0.00






1
  VOLUMETRIC BUDGET FOR AGRICULTURAL FIELDS AT TIME STEP   30, STRESS PERIOD  10
  ------------------------------------------------------------------------------

     CUMULATIVE VOLUMES      L**3       RATES FOR THIS TIME STEP      L**3/T
     ------------------                 ------------------------

           IN:                                      IN:
           ---                                      ---
               AG WELLS  =   398277792.0000                 AG WELLS  =          10.9464
      DIVERSION SEGMENTS =           0.0000        DIVERSION SEGMENTS =           0.0000
           GW IRRIGATION =           0.0000             GW IRRIGATION =           0.0000
           SW IRRIGATION =           0.0000             SW IRRIGATION =           0.0000
        SYSTEM LOSSES GW =           0.0000          SYSTEM LOSSES GW =           0.0000
        SYSTEM LOSSES SW =           0.0000          SYSTEM LOSSES SW =           0.0000

                TOTAL IN =   398277792.0000                  TOTAL IN =          10.9464

          OUT:                                     OUT:
          ----                                     ----
               AG WELLS  =           0.0000                 AG WELLS  =           0.0000
      DIVERSION SEGMENTS =           0.0000        DIVERSION SEGMENTS =           0.0000
           GW IRRIGATION =   398277792.0000             GW IRRIGATION =          10.9464
           SW IRRIGATION =           0.0000             SW IRRIGATION =           0.0000
        SYSTEM LOSSES GW =           0.0000          SYSTEM LOSSES GW =           0.0000
        SYSTEM LOSSES SW =           0.0000          SYSTEM LOSSES SW =           0.0000

               TOTAL OUT =   398277792.0000                 TOTAL OUT =          10.9464

                IN - OUT =           0.0000                  IN - OUT =           0.0000

     PERCENT DISCREPANCY =           0.00         PERCENT DISCREPANCY =           0.00



1
  VOLUMETRIC BUDGET FOR ENTIRE MODEL AT END OF TIME STEP   30, STRESS PERIOD  10
  ------------------------------------------------------------------------------

     CUMULATIVE VOLUMES      L**3       RATES FOR THIS TIME STEP      L**3/T
     ------------------                 ------------------------

           IN:                                      IN:
           ---                                      ---
             STORAGE     =   434007648.0000               STORAGE     =          19.0697
       CONSTANT HEAD     =           0.0000         CONSTANT HEAD     =           0.0000
     HEAD DEP BOUNDS     =     6781339.5000       HEAD DEP BOUNDS     =           0.2854
      STREAM LEAKAGE     =   302954816.0000        STREAM LEAKAGE     =          12.2803
        UZF RECHARGE     =       73223.9531          UZF RECHARGE     =           0.0000
               GW ET     =           0.0000                 GW ET     =           0.0000
     SURFACE LEAKAGE     =           0.0000       SURFACE LEAKAGE     =           0.0000
           AG WELLS      =           0.0000             AG WELLS      =           0.0000

                TOTAL IN =   743817024.0000                  TOTAL IN =          31.6355

          OUT:                                     OUT:
          ----                                     ----
             STORAGE     =    83977440.0000               STORAGE     =           9.4001
       CONSTANT HEAD     =           0.0000         CONSTANT HEAD     =           0.0000
     HEAD DEP BOUNDS     =     7020282.5000       HEAD DEP BOUNDS     =           0.2948
      STREAM LEAKAGE     =   240965200.0000        STREAM LEAKAGE     =          10.7316
        UZF RECHARGE     =           0.0000          UZF RECHARGE     =           0.0000
               GW ET     =    13580006.0000                 GW ET     =           0.2625
     SURFACE LEAKAGE     =           0.0000       SURFACE LEAKAGE     =           0.0000
           AG WELLS      =   398277792.0000             AG WELLS      =          10.9464

               TOTAL OUT =   743820672.0000                 TOTAL OUT =          31.6355

                IN - OUT =       -3648.0000                  IN - OUT =      -3.4332E-05

     PERCENT DISCREPANCY =          -0.00         PERCENT DISCREPANCY =          -0.00






         TIME SUMMARY AT END OF TIME STEP   30 IN STRESS PERIOD   10
                    SECONDS     MINUTES      HOURS       DAYS        YEARS
                    -----------------------------------------------------------
   TIME STEP LENGTH  87667.      1461.1      24.352      1.0147     2.77799E-03
 STRESS PERIOD TIME 2.63000E+06  43833.      730.56      30.440     8.33397E-02
         TOTAL TIME 2.37564E+07 3.95940E+05  6599.0      274.96     0.75279    
1
1
                            STRESS PERIOD NO.   11, LENGTH =   2630000.    
                            -----------------------------------------------

                              NUMBER OF TIME STEPS =    30

                               MULTIPLIER FOR DELT =     1.000

                            INITIAL TIME STEP SIZE =   87666.66    

 REUSING NON-PARAMETER GHB CELLS FROM LAST STRESS PERIOD

      2 GHB CELLS

 REUSING STREAM SEGMENT DATA FROM LAST STRESS PERIOD



            AREAL INFILTRATION RATE
 READING ON UNIT   19 WITH FORMAT: (10F4.0)            

            1           2           3           4           5           6           7           8           9          10
 ........................................................................................................................
   1   1.2000E-09   0.000       0.000       0.000       0.000       0.000       0.000       0.000       0.000       0.000    
   2   2.1000E-09  2.0000E-09  8.0000E-10  8.5000E-09   0.000       0.000       0.000       0.000       0.000       0.000    
   3   5.0000E-10  1.1000E-09  8.8000E-09  5.5000E-09   0.000       0.000       0.000       0.000       0.000       0.000    
   4   8.5000E-09  1.1000E-09  1.1000E-09  1.1000E-09  2.0000E-09   0.000       0.000       0.000       0.000       0.000    
   5   8.5000E-09  1.1000E-09  1.1000E-09  1.1000E-09  1.1000E-09   0.000       0.000       0.000       0.000       0.000    
   6   8.5000E-09  5.2000E-09  2.1000E-09  1.1000E-09  1.5000E-09   0.000       0.000       0.000       0.000       0.000    
   7   8.5000E-09  5.2000E-09  2.1000E-09  1.2000E-09  2.0000E-09   0.000       0.000       0.000       0.000       0.000    
   8   5.0000E-10  5.2000E-09  2.1000E-09  1.2000E-09  5.0000E-09   0.000       0.000       0.000       0.000       0.000    
   9   5.0000E-10  5.2000E-09  2.1000E-09  1.2000E-09  5.0000E-09   0.000       0.000       0.000       0.000       0.000    
  10   5.0000E-10  5.2000E-09  2.1000E-09  1.2000E-09  5.8000E-09   0.000       0.000       0.000       0.000       0.000    
  11   1.0000E-10  1.1000E-09  1.1000E-09  1.2000E-09  5.0000E-09   0.000       0.000       0.000       0.000       0.000    
  12   1.1000E-09  1.1000E-09  1.1000E-09  1.1000E-09  2.0000E-09   0.000       0.000       0.000       0.000       0.000    
  13   1.1000E-09  2.2000E-09  2.2000E-09  2.1000E-09  1.0000E-09   0.000       0.000       0.000       0.000       0.000    
  14   2.0000E-10  5.5000E-09  5.5000E-09  5.2000E-09  1.0000E-09   0.000       0.000       0.000       0.000       0.000    
  15    0.000      8.8000E-09  8.8000E-09   0.000       0.000       0.000       0.000       0.000       0.000       0.000    

                  ET RATE =  5.000000E-09

 USING ET EXTINCTION DEPTH FROM PREVIOUS STRESS PERIOD. CURRENT PERIOD IS:      11

 USING EXTINCTION WATER CONTENT FROM PREVIOUS STRESS PERIOD. CURRENT PERIOD IS:      11

 USING AIR ENTRY PRESSURE FROM PREVIOUS STRESS PERIOD. CURRENT PERIOD IS:      11

 USING ROOT PRESSURE HEAD FROM PREVIOUS STRESS PERIOD. CURRENT PERIOD IS:      11

 USING ROOT ACTIVITY FROM PREVIOUS STRESS PERIOD. CURRENT PERIOD IS:      11

 PROCESSING AG STRESS PERIOD DATA

 READING AG STRESS PERIOD DATA

 READING IRRIGATION WELL

 END PROCESSING AG STRESS PERIOD DATA OPTIONS
 
 SOLVING FOR HEAD 
                                                   Max.-Head-Change                         Max.-Flux-Residual
  Residual-Control   Outer-Iter.   Inner-Iter.     Column Row Layer    Maximum-Head-Change  Column Row Layer    Maximum-Flux-Residual          L2-NORM 
          0                 1           2             4    7     1       0.7215184843E-01       4    7    1         0.3790198091E+01      0.8636407662E+01
          0                 2           2             4    7     1      -0.7018462021E-02       4    7    1        -0.3790235610E+00      0.8636336722E+00
          0                 3           2             4    7     1       0.4779307103E-03       4    7    1         0.2653162523E-01      0.6045384356E-01
          0                 4           1             4    7     1      -0.1901731260E-04       4    7    1        -0.1085145152E-02      0.2472507933E-02

    ------------------------------------------------
       NWT REQUIRED            4 OUTER ITERATIONS 
       AND A TOTAL OF          7 INNER ITERATIONS.
    ------------------------------------------------

 NO OUTPUT CONTROL FOR STRESS PERIOD   11   TIME STEP    1
 
 SOLVING FOR HEAD 
                                                   Max.-Head-Change                         Max.-Flux-Residual
  Residual-Control   Outer-Iter.   Inner-Iter.     Column Row Layer    Maximum-Head-Change  Column Row Layer    Maximum-Flux-Residual          L2-NORM 
          0                 1           2             4    7     1       0.7134380729E-01       4    7    1         0.3748859830E+01      0.8470778400E+01
          0                 2           2             4    7     1      -0.6939863852E-02       4    7    1        -0.3748898813E+00      0.8470382713E+00
          0                 3           2             4    7     1       0.4725784448E-03       4    7    1         0.2624226614E-01      0.5928918264E-01
          0                 4           1             4    7     1      -0.1880434082E-04       4    7    1        -0.1073310350E-02      0.2424731915E-02

    ------------------------------------------------
       NWT REQUIRED            4 OUTER ITERATIONS 
       AND A TOTAL OF          7 INNER ITERATIONS.
    ------------------------------------------------

 NO OUTPUT CONTROL FOR STRESS PERIOD   11   TIME STEP    2
 
 SOLVING FOR HEAD 
                                                   Max.-Head-Change                         Max.-Flux-Residual
  Residual-Control   Outer-Iter.   Inner-Iter.     Column Row Layer    Maximum-Head-Change  Column Row Layer    Maximum-Flux-Residual          L2-NORM 
          0                 1           2             4    7     1       0.7052530543E-01       4    7    1         0.3706877032E+01      0.8299390928E+01
          0                 2           2             4    7     1      -0.6860247783E-02       4    7    1        -0.3706917237E+00      0.8299002329E+00
          0                 3           2             4    7     1       0.4671568676E-03       4    7    1         0.2594839383E-01      0.5808992217E-01
          0                 4           1             4    7     1      -0.1858861127E-04       4    7    1        -0.1061290963E-02      0.2375696468E-02

    ------------------------------------------------
       NWT REQUIRED            4 OUTER ITERATIONS 
       AND A TOTAL OF          7 INNER ITERATIONS.
    ------------------------------------------------

 NO OUTPUT CONTROL FOR STRESS PERIOD   11   TIME STEP    3
 
 SOLVING FOR HEAD 
                                                   Max.-Head-Change                         Max.-Flux-Residual
  Residual-Control   Outer-Iter.   Inner-Iter.     Column Row Layer    Maximum-Head-Change  Column Row Layer    Maximum-Flux-Residual          L2-NORM 
          0                 1           2             4    7     1       0.6969804513E-01       4    7    1         0.3664344537E+01      0.8134410365E+01
          0                 2           2             4    7     1      -0.6779779425E-02       4    7    1        -0.3664385742E+00      0.8134125171E+00
          0                 3           2             4    7     1       0.4616772561E-03       4    7    1         0.2565067229E-01      0.5693606813E-01
          0                 4           1             4    7     1      -0.1837057272E-04       4    7    1        -0.1049114143E-02      0.2328484189E-02

    ------------------------------------------------
       NWT REQUIRED            4 OUTER ITERATIONS 
       AND A TOTAL OF          7 INNER ITERATIONS.
    ------------------------------------------------

 NO OUTPUT CONTROL FOR STRESS PERIOD   11   TIME STEP    4
 
 SOLVING FOR HEAD 
                                                   Max.-Head-Change                         Max.-Flux-Residual
  Residual-Control   Outer-Iter.   Inner-Iter.     Column Row Layer    Maximum-Head-Change  Column Row Layer    Maximum-Flux-Residual          L2-NORM 
          0                 1           2             4    7     1       0.6886387517E-01       4    7    1         0.3621365193E+01      0.7975446657E+01
          0                 2           2             4    7     1      -0.6698638645E-02       4    7    1        -0.3621407197E+00      0.7975179113E+00
          0                 3           2             4    7     1       0.4561518576E-03       4    7    1         0.2534982158E-01      0.5582379767E-01
          0                 4           1             4    7     1      -0.1815071169E-04       4    7    1        -0.1036809329E-02      0.2283039933E-02

    ------------------------------------------------
       NWT REQUIRED            4 OUTER ITERATIONS 
       AND A TOTAL OF          7 INNER ITERATIONS.
    ------------------------------------------------

 NO OUTPUT CONTROL FOR STRESS PERIOD   11   TIME STEP    5
 
 SOLVING FOR HEAD 
                                                   Max.-Head-Change                         Max.-Flux-Residual
  Residual-Control   Outer-Iter.   Inner-Iter.     Column Row Layer    Maximum-Head-Change  Column Row Layer    Maximum-Flux-Residual          L2-NORM 
          0                 1           2             4    7     1       0.6802438442E-01       4    7    1         0.3578027565E+01      0.7822156882E+01
          0                 2           2             4    7     1      -0.6616980023E-02       4    7    1        -0.3578070184E+00      0.7821921912E+00
          0                 3           2             4    7     1       0.4505911990E-03       4    7    1         0.2504646177E-01      0.5475125133E-01
          0                 4           1             4    7     1      -0.1792944807E-04       4    7    1        -0.1024401892E-02      0.2239155831E-02

    ------------------------------------------------
       NWT REQUIRED            4 OUTER ITERATIONS 
       AND A TOTAL OF          7 INNER ITERATIONS.
    ------------------------------------------------

 NO OUTPUT CONTROL FOR STRESS PERIOD   11   TIME STEP    6
 
 SOLVING FOR HEAD 
                                                   Max.-Head-Change                         Max.-Flux-Residual
  Residual-Control   Outer-Iter.   Inner-Iter.     Column Row Layer    Maximum-Head-Change  Column Row Layer    Maximum-Flux-Residual          L2-NORM 
          0                 1           2             4    7     1       0.6718090904E-01       4    7    1         0.3534406734E+01      0.7674203005E+01
          0                 2           2             4    7     1      -0.6534933388E-02       4    7    1        -0.3534449803E+00      0.7673957149E+00
          0                 3           2             4    7     1       0.4450041207E-03       4    7    1         0.2474111855E-01      0.5371575949E-01
          0                 4           1             4    7     1      -0.1770713299E-04       4    7    1        -0.1011913343E-02      0.2196862524E-02

    ------------------------------------------------
       NWT REQUIRED            4 OUTER ITERATIONS 
       AND A TOTAL OF          7 INNER ITERATIONS.
    ------------------------------------------------

 NO OUTPUT CONTROL FOR STRESS PERIOD   11   TIME STEP    7
 
 SOLVING FOR HEAD 
                                                   Max.-Head-Change                         Max.-Flux-Residual
  Residual-Control   Outer-Iter.   Inner-Iter.     Column Row Layer    Maximum-Head-Change  Column Row Layer    Maximum-Flux-Residual          L2-NORM 
          0                 1           2             4    7     1       0.6633495765E-01       4    7    1         0.3490586582E+01      0.7531296552E+01
          0                 2           2             4    7     1      -0.6452646025E-02       4    7    1        -0.3490629952E+00      0.7531114642E+00
          0                 3           2             4    7     1       0.4394006518E-03       4    7    1         0.2443437917E-01      0.5271606914E-01
          0                 4           1             4    7     1      -0.1748416595E-04       4    7    1        -0.9993676963E-03      0.2155977177E-02

    ------------------------------------------------
       NWT REQUIRED            4 OUTER ITERATIONS 
       AND A TOTAL OF          7 INNER ITERATIONS.
    ------------------------------------------------

 NO OUTPUT CONTROL FOR STRESS PERIOD   11   TIME STEP    8
 
 SOLVING FOR HEAD 
                                                   Max.-Head-Change                         Max.-Flux-Residual
  Residual-Control   Outer-Iter.   Inner-Iter.     Column Row Layer    Maximum-Head-Change  Column Row Layer    Maximum-Flux-Residual          L2-NORM 
          0                 1           2             4    7     1       0.6548765278E-01       4    7    1         0.3446630706E+01      0.7393161562E+01
          0                 2           2             4    7     1      -0.6370226632E-02       4    7    1        -0.3446674241E+00      0.7393001750E+00
          0                 3           2             4    7     1       0.4337881939E-03       4    7    1         0.2412668891E-01      0.5174944868E-01
          0                 4           1             4    7     1      -0.1726084062E-04       4    7    1        -0.9867831382E-03      0.2116474443E-02

    ------------------------------------------------
       NWT REQUIRED            4 OUTER ITERATIONS 
       AND A TOTAL OF          7 INNER ITERATIONS.
    ------------------------------------------------

 NO OUTPUT CONTROL FOR STRESS PERIOD   11   TIME STEP    9
 
 SOLVING FOR HEAD 
                                                   Max.-Head-Change                         Max.-Flux-Residual
  Residual-Control   Outer-Iter.   Inner-Iter.     Column Row Layer    Maximum-Head-Change  Column Row Layer    Maximum-Flux-Residual          L2-NORM 
          0                 1           2             4    7     1       0.6464016462E-01       4    7    1         0.3402604632E+01      0.7259534266E+01
          0                 2           2             4    7     1      -0.6287789230E-02       4    7    1        -0.3402648211E+00      0.7259396542E+00
          0                 3           2             4    7     1       0.4281745116E-03       4    7    1         0.2381850651E-01      0.5081438758E-01
          0                 4           1             4    7     1      -0.1703746717E-04       4    7    1        -0.9741784672E-03      0.2078203214E-02

    ------------------------------------------------
       NWT REQUIRED            4 OUTER ITERATIONS 
       AND A TOTAL OF          7 INNER ITERATIONS.
    ------------------------------------------------

 NO OUTPUT CONTROL FOR STRESS PERIOD   11   TIME STEP   10
 
 SOLVING FOR HEAD 
                                                   Max.-Head-Change                         Max.-Flux-Residual
  Residual-Control   Outer-Iter.   Inner-Iter.     Column Row Layer    Maximum-Head-Change  Column Row Layer    Maximum-Flux-Residual          L2-NORM 
          0                 1           2             4    7     1       0.6379370488E-01       4    7    1         0.3358576326E+01      0.7130180887E+01
          0                 2           2             4    7     1      -0.6205451704E-02       4    7    1        -0.3358619842E+00      0.7130057457E+00
          0                 3           2             4    7     1       0.4225676321E-03       4    7    1         0.2351030787E-01      0.4990916746E-01
          0                 4           1             4    7     1      -0.1681436404E-04       4    7    1        -0.9615731108E-03      0.2041246090E-02

    ------------------------------------------------
       NWT REQUIRED            4 OUTER ITERATIONS 
       AND A TOTAL OF          7 INNER ITERATIONS.
    ------------------------------------------------

 NO OUTPUT CONTROL FOR STRESS PERIOD   11   TIME STEP   11
 
 SOLVING FOR HEAD 
                                                   Max.-Head-Change                         Max.-Flux-Residual
  Residual-Control   Outer-Iter.   Inner-Iter.     Column Row Layer    Maximum-Head-Change  Column Row Layer    Maximum-Flux-Residual          L2-NORM 
          0                 1           2             4    7     1       0.6294912232E-01       4    7    1         0.3314594012E+01      0.7004878169E+01
          0                 2           2             4    7     1      -0.6123296609E-02       4    7    1        -0.3314637366E+00      0.7004669148E+00
          0                 3           2             4    7     1       0.4169731771E-03       4    7    1         0.2320243057E-01      0.4903156265E-01
          0                 4           1             4    7     1      -0.1659175585E-04       4    7    1        -0.9489809293E-03      0.2005316657E-02

    ------------------------------------------------
       NWT REQUIRED            4 OUTER ITERATIONS 
       AND A TOTAL OF          7 INNER ITERATIONS.
    ------------------------------------------------

 NO OUTPUT CONTROL FOR STRESS PERIOD   11   TIME STEP   12
 
 SOLVING FOR HEAD 
                                                   Max.-Head-Change                         Max.-Flux-Residual
  Residual-Control   Outer-Iter.   Inner-Iter.     Column Row Layer    Maximum-Head-Change  Column Row Layer    Maximum-Flux-Residual          L2-NORM 
          0                 1           2             4    7     1       0.6210745868E-01       4    7    1         0.3270716302E+01      0.6883435767E+01
          0                 2           2             4    7     1      -0.6041425363E-02       4    7    1        -0.3270759409E+00      0.6883340647E+00
          0                 3           2             4    7     1       0.4113980522E-03       4    7    1         0.2289528496E-01      0.4818239814E-01
          0                 4           1             4    7     1      -0.1636991625E-04       4    7    1        -0.9364186558E-03      0.1970595803E-02

    ------------------------------------------------
       NWT REQUIRED            4 OUTER ITERATIONS 
       AND A TOTAL OF          7 INNER ITERATIONS.
    ------------------------------------------------

 NO OUTPUT CONTROL FOR STRESS PERIOD   11   TIME STEP   13
 
 SOLVING FOR HEAD 
                                                   Max.-Head-Change                         Max.-Flux-Residual
  Residual-Control   Outer-Iter.   Inner-Iter.     Column Row Layer    Maximum-Head-Change  Column Row Layer    Maximum-Flux-Residual          L2-NORM 
          0                 1           2             4    7     1       0.6126940345E-01       4    7    1         0.3226982599E+01      0.6765656055E+01
          0                 2           2             4    7     1      -0.5959904979E-02       4    7    1        -0.3227025382E+00      0.6765572216E+00
          0                 3           2             4    7     1       0.4058468207E-03       4    7    1         0.2258914694E-01      0.4735810318E-01
          0                 4           1             4    7     1      -0.1614902760E-04       4    7    1        -0.9238975908E-03      0.1936900734E-02

    ------------------------------------------------
       NWT REQUIRED            4 OUTER ITERATIONS 
       AND A TOTAL OF          7 INNER ITERATIONS.
    ------------------------------------------------

 NO OUTPUT CONTROL FOR STRESS PERIOD   11   TIME STEP   14
 
 SOLVING FOR HEAD 
                                                   Max.-Head-Change                         Max.-Flux-Residual
  Residual-Control   Outer-Iter.   Inner-Iter.     Column Row Layer    Maximum-Head-Change  Column Row Layer    Maximum-Flux-Residual          L2-NORM 
          0                 1           2             4    7     1       0.6043571685E-01       4    7    1         0.3183435958E+01      0.6651361447E+01
          0                 2           2             4    7     1      -0.5878809443E-02       4    7    1        -0.3183478350E+00      0.6651287618E+00
          0                 3           2             4    7     1       0.4003245209E-03       4    7    1         0.2228431797E-01      0.4655819733E-01
          0                 4           1             4    7     1      -0.1592928988E-04       4    7    1        -0.9114300569E-03      0.1904173943E-02

    ------------------------------------------------
       NWT REQUIRED            4 OUTER ITERATIONS 
       AND A TOTAL OF          7 INNER ITERATIONS.
    ------------------------------------------------

 NO OUTPUT CONTROL FOR STRESS PERIOD   11   TIME STEP   15
 
 SOLVING FOR HEAD 
                                                   Max.-Head-Change                         Max.-Flux-Residual
  Residual-Control   Outer-Iter.   Inner-Iter.     Column Row Layer    Maximum-Head-Change  Column Row Layer    Maximum-Flux-Residual          L2-NORM 
          0                 1           2             4    7     1       0.5960735545E-01       4    7    1         0.3140130412E+01      0.6540387374E+01
          0                 2           2             4    7     1      -0.5798231817E-02       4    7    1        -0.3140172353E+00      0.6540322715E+00
          0                 3           2             4    7     1       0.3948374895E-03       4    7    1         0.2198117627E-01      0.4578153910E-01
          0                 4           1             4    7     1      -0.1571095614E-04       4    7    1        -0.8990315564E-03      0.1872415421E-02

    ------------------------------------------------
       NWT REQUIRED            4 OUTER ITERATIONS 
       AND A TOTAL OF          7 INNER ITERATIONS.
    ------------------------------------------------

 NO OUTPUT CONTROL FOR STRESS PERIOD   11   TIME STEP   16
 
 SOLVING FOR HEAD 
                                                   Max.-Head-Change                         Max.-Flux-Residual
  Residual-Control   Outer-Iter.   Inner-Iter.     Column Row Layer    Maximum-Head-Change  Column Row Layer    Maximum-Flux-Residual          L2-NORM 
          0                 1           2             4    7     1       0.5878453347E-01       4    7    1         0.3097079019E+01      0.6432575646E+01
          0                 2           2             4    7     1      -0.5718192948E-02       4    7    1        -0.3097120458E+00      0.6432518610E+00
          0                 3           2             4    7     1       0.3893871464E-03       4    7    1         0.2167981336E-01      0.4502695284E-01
          0                 4           1             4    7     1      -0.1549408164E-04       4    7    1        -0.8867057854E-03      0.1841565786E-02

    ------------------------------------------------
       NWT REQUIRED            4 OUTER ITERATIONS 
       AND A TOTAL OF          7 INNER ITERATIONS.
    ------------------------------------------------

 NO OUTPUT CONTROL FOR STRESS PERIOD   11   TIME STEP   17
 
 SOLVING FOR HEAD 
                                                   Max.-Head-Change                         Max.-Flux-Residual
  Residual-Control   Outer-Iter.   Inner-Iter.     Column Row Layer    Maximum-Head-Change  Column Row Layer    Maximum-Flux-Residual          L2-NORM 
          0                 1           2             4    7     1       0.5796822576E-01       4    7    1         0.3054336737E+01      0.6327785768E+01
          0                 2           2             4    7     1      -0.5638787672E-02       4    7    1        -0.3054377628E+00      0.6327735907E+00
          0                 3           2             4    7     1       0.3839799495E-03       4    7    1         0.2138061395E-01      0.4429353828E-01
          0                 4           1             4    7     1      -0.1527892405E-04       4    7    1        -0.8744685053E-03      0.1811558496E-02

    ------------------------------------------------
       NWT REQUIRED            4 OUTER ITERATIONS 
       AND A TOTAL OF          7 INNER ITERATIONS.
    ------------------------------------------------

 NO OUTPUT CONTROL FOR STRESS PERIOD   11   TIME STEP   18
 
 SOLVING FOR HEAD 
                                                   Max.-Head-Change                         Max.-Flux-Residual
  Residual-Control   Outer-Iter.   Inner-Iter.     Column Row Layer    Maximum-Head-Change  Column Row Layer    Maximum-Flux-Residual          L2-NORM 
          0                 1           2             4    7     1       0.5715866320E-01       4    7    1         0.3011917566E+01      0.6225886057E+01
          0                 2           2             4    7     1      -0.5560038458E-02       4    7    1        -0.3011957870E+00      0.6225842280E+00
          0                 3           2             4    7     1       0.3786174283E-03       4    7    1         0.2108367606E-01      0.4358033756E-01
          0                 4           1             4    7     1      -0.1506554448E-04       4    7    1        -0.8623237381E-03      0.1782403705E-02

    ------------------------------------------------
       NWT REQUIRED            4 OUTER ITERATIONS 
       AND A TOTAL OF          7 INNER ITERATIONS.
    ------------------------------------------------

 NO OUTPUT CONTROL FOR STRESS PERIOD   11   TIME STEP   19
 
 SOLVING FOR HEAD 
                                                   Max.-Head-Change                         Max.-Flux-Residual
  Residual-Control   Outer-Iter.   Inner-Iter.     Column Row Layer    Maximum-Head-Change  Column Row Layer    Maximum-Flux-Residual          L2-NORM 
          0                 1           2             4    7     1       0.5635657142E-01       4    7    1         0.2969862717E+01      0.6126749754E+01
          0                 2           2             4    7     1      -0.5482015879E-02       4    7    1        -0.2969902403E+00      0.6126607731E+00
          0                 3           2             4    7     1       0.3733043887E-03       4    7    1         0.2078928824E-01      0.4288575969E-01
          0                 4           1             4    7     1      -0.1485413360E-04       4    7    1        -0.8502832545E-03      0.1754031592E-02

    ------------------------------------------------
       NWT REQUIRED            4 OUTER ITERATIONS 
       AND A TOTAL OF          7 INNER ITERATIONS.
    ------------------------------------------------

 NO OUTPUT CONTROL FOR STRESS PERIOD   11   TIME STEP   20
 
 SOLVING FOR HEAD 
                                                   Max.-Head-Change                         Max.-Flux-Residual
  Residual-Control   Outer-Iter.   Inner-Iter.     Column Row Layer    Maximum-Head-Change  Column Row Layer    Maximum-Flux-Residual          L2-NORM 
          0                 1           2             4    7     1       0.5556208118E-01       4    7    1         0.2928180571E+01      0.6030262924E+01
          0                 2           2             4    7     1      -0.5404732720E-02       4    7    1        -0.2928219609E+00      0.6030229466E+00
          0                 3           2             4    7     1       0.3680417005E-03       4    7    1         0.2049750917E-01      0.4221116142E-01
          0                 4           1             4    7     1      -0.1464472582E-04       4    7    1        -0.8383494433E-03      0.1726406508E-02

    ------------------------------------------------
       NWT REQUIRED            4 OUTER ITERATIONS 
       AND A TOTAL OF          7 INNER ITERATIONS.
    ------------------------------------------------

 NO OUTPUT CONTROL FOR STRESS PERIOD   11   TIME STEP   21
 
 SOLVING FOR HEAD 
                                                   Max.-Head-Change                         Max.-Flux-Residual
  Residual-Control   Outer-Iter.   Inner-Iter.     Column Row Layer    Maximum-Head-Change  Column Row Layer    Maximum-Flux-Residual          L2-NORM 
          0                 1           2             4    7     1       0.5477582889E-01       4    7    1         0.2886907153E+01      0.5936324083E+01
          0                 2           2             4    7     1      -0.5328250834E-02       4    7    1        -0.2886945521E+00      0.5936294667E+00
          0                 3           2             4    7     1       0.3628335777E-03       4    7    1         0.2020859107E-01      0.4155365071E-01
          0                 4           1             4    7     1      -0.1443749003E-04       4    7    1        -0.8265326906E-03      0.1699519946E-02

    ------------------------------------------------
       NWT REQUIRED            4 OUTER ITERATIONS 
       AND A TOTAL OF          7 INNER ITERATIONS.
    ------------------------------------------------

 NO OUTPUT CONTROL FOR STRESS PERIOD   11   TIME STEP   22
 
 SOLVING FOR HEAD 
                                                   Max.-Head-Change                         Max.-Flux-Residual
  Residual-Control   Outer-Iter.   Inner-Iter.     Column Row Layer    Maximum-Head-Change  Column Row Layer    Maximum-Flux-Residual          L2-NORM 
          0                 1           2             4    7     1       0.5399798852E-01       4    7    1         0.2846053525E+01      0.5844809837E+01
          0                 2           2             4    7     1      -0.5252587171E-02       4    7    1        -0.2846091204E+00      0.5844784203E+00
          0                 3           2             4    7     1       0.3576811725E-03       4    7    1         0.1992261139E-01      0.4091310388E-01
          0                 4           1             4    7     1      -0.1423247080E-04       4    7    1        -0.8148360969E-03      0.1673314731E-02

    ------------------------------------------------
       NWT REQUIRED            4 OUTER ITERATIONS 
       AND A TOTAL OF          7 INNER ITERATIONS.
    ------------------------------------------------

 NO OUTPUT CONTROL FOR STRESS PERIOD   11   TIME STEP   23
 
 SOLVING FOR HEAD 
                                                   Max.-Head-Change                         Max.-Flux-Residual
  Residual-Control   Outer-Iter.   Inner-Iter.     Column Row Layer    Maximum-Head-Change  Column Row Layer    Maximum-Flux-Residual          L2-NORM 
          0                 1           2             4    7     1       0.5322884319E-01       4    7    1         0.2805636021E+01      0.5755632837E+01
          0                 2           2             4    7     1      -0.5177769275E-02       4    7    1        -0.2805672996E+00      0.5755610474E+00
          0                 3           2             4    7     1       0.3525863615E-03       4    7    1         0.1963968447E-01      0.4028891334E-01
          0                 4           1             4    7     1      -0.1402974365E-04       4    7    1        -0.8032643805E-03      0.1647813761E-02

    ------------------------------------------------
       NWT REQUIRED            4 OUTER ITERATIONS 
       AND A TOTAL OF          7 INNER ITERATIONS.
    ------------------------------------------------

 NO OUTPUT CONTROL FOR STRESS PERIOD   11   TIME STEP   24
 
 SOLVING FOR HEAD 
                                                   Max.-Head-Change                         Max.-Flux-Residual
  Residual-Control   Outer-Iter.   Inner-Iter.     Column Row Layer    Maximum-Head-Change  Column Row Layer    Maximum-Flux-Residual          L2-NORM 
          0                 1           2             4    7     1       0.5246876458E-01       4    7    1         0.2765676635E+01      0.5668698611E+01
          0                 2           2             4    7     1      -0.5103833306E-02       4    7    1        -0.2765712894E+00      0.5668679093E+00
          0                 3           2             4    7     1       0.3475516062E-03       4    7    1         0.1935996431E-01      0.3968043545E-01
          0                 4           1             4    7     1      -0.1382940608E-04       4    7    1        -0.7918237941E-03      0.1622916503E-02

    ------------------------------------------------
       NWT REQUIRED            4 OUTER ITERATIONS 
       AND A TOTAL OF          7 INNER ITERATIONS.
    ------------------------------------------------

 NO OUTPUT CONTROL FOR STRESS PERIOD   11   TIME STEP   25
 
 SOLVING FOR HEAD 
                                                   Max.-Head-Change                         Max.-Flux-Residual
  Residual-Control   Outer-Iter.   Inner-Iter.     Column Row Layer    Maximum-Head-Change  Column Row Layer    Maximum-Flux-Residual          L2-NORM 
          0                 1           2             4    7     1       0.5171782525E-01       4    7    1         0.2726180009E+01      0.5583917977E+01
          0                 2           2             4    7     1      -0.5030786327E-02       4    7    1        -0.2726215543E+00      0.5583900717E+00
          0                 3           2             4    7     1       0.3425773881E-03       4    7    1         0.1908348342E-01      0.3908698489E-01
          0                 4           1             4    7     1      -0.1363147744E-04       4    7    1        -0.7805157190E-03      0.1598646332E-02

    ------------------------------------------------
       NWT REQUIRED            4 OUTER ITERATIONS 
       AND A TOTAL OF          7 INNER ITERATIONS.
    ------------------------------------------------

 NO OUTPUT CONTROL FOR STRESS PERIOD   11   TIME STEP   26
 
 SOLVING FOR HEAD 
                                                   Max.-Head-Change                         Max.-Flux-Residual
  Residual-Control   Outer-Iter.   Inner-Iter.     Column Row Layer    Maximum-Head-Change  Column Row Layer    Maximum-Flux-Residual          L2-NORM 
          0                 1           2             4    7     1       0.5097633108E-01       4    7    1         0.2687164536E+01      0.5501211167E+01
          0                 2           2             4    7     1      -0.4958658095E-02       4    7    1        -0.2687199340E+00      0.5501196227E+00
          0                 3           2             4    7     1       0.3376657335E-03       4    7    1         0.1881037057E-01      0.3850809278E-01
          0                 4           1             4    7     1      -0.1343603786E-04       4    7    1        -0.7693453874E-03      0.1574965879E-02

    ------------------------------------------------
       NWT REQUIRED            4 OUTER ITERATIONS 
       AND A TOTAL OF          7 INNER ITERATIONS.
    ------------------------------------------------

 NO OUTPUT CONTROL FOR STRESS PERIOD   11   TIME STEP   27
 
 SOLVING FOR HEAD 
                                                   Max.-Head-Change                         Max.-Flux-Residual
  Residual-Control   Outer-Iter.   Inner-Iter.     Column Row Layer    Maximum-Head-Change  Column Row Layer    Maximum-Flux-Residual          L2-NORM 
          0                 1           2             4    7     1       0.5024456035E-01       4    7    1         0.2648646080E+01      0.5420503061E+01
          0                 2           2             4    7     1      -0.4887475684E-02       4    7    1        -0.2648680151E+00      0.5420489995E+00
          0                 3           2             4    7     1       0.3328184852E-03       4    7    1         0.1854073682E-01      0.3794316585E-01
          0                 4           1             4    7     1      -0.1324316103E-04       4    7    1        -0.7583173292E-03      0.1551875873E-02

    ------------------------------------------------
       NWT REQUIRED            4 OUTER ITERATIONS 
       AND A TOTAL OF          7 INNER ITERATIONS.
    ------------------------------------------------

 NO OUTPUT CONTROL FOR STRESS PERIOD   11   TIME STEP   28
 
 SOLVING FOR HEAD 
                                                   Max.-Head-Change                         Max.-Flux-Residual
  Residual-Control   Outer-Iter.   Inner-Iter.     Column Row Layer    Maximum-Head-Change  Column Row Layer    Maximum-Flux-Residual          L2-NORM 
          0                 1           2             4    7     1       0.4952235351E-01       4    7    1         0.2610617116E+01      0.5341716712E+01
          0                 2           2             4    7     1      -0.4817223577E-02       4    7    1        -0.2610650451E+00      0.5341705395E+00
          0                 3           2             4    7     1       0.3280345877E-03       4    7    1         0.1827452949E-01      0.3739168531E-01
          0                 4           1             4    7     1      -0.1305280560E-04       4    7    1        -0.7474294473E-03      0.1529310986E-02

    ------------------------------------------------
       NWT REQUIRED            4 OUTER ITERATIONS 
       AND A TOTAL OF          7 INNER ITERATIONS.
    ------------------------------------------------

 NO OUTPUT CONTROL FOR STRESS PERIOD   11   TIME STEP   29
 
 SOLVING FOR HEAD 
                                                   Max.-Head-Change                         Max.-Flux-Residual
  Residual-Control   Outer-Iter.   Inner-Iter.     Column Row Layer    Maximum-Head-Change  Column Row Layer    Maximum-Flux-Residual          L2-NORM 
          0                 1           2             4    7     1       0.4881008094E-01       4    7    1         0.2573098644E+01      0.5264793526E+01
          0                 2           2             4    7     1      -0.4747937805E-02       4    7    1        -0.2573131246E+00      0.5264783513E+00
          0                 3           2             4    7     1       0.3233164944E-03       4    7    1         0.1801189566E-01      0.3685324197E-01
          0                 4           1             4    7     1      -0.1286506817E-04       4    7    1        -0.7366877082E-03      0.1507281230E-02

    ------------------------------------------------
       NWT REQUIRED            4 OUTER ITERATIONS 
       AND A TOTAL OF          7 INNER ITERATIONS.
    ------------------------------------------------

 NO OUTPUT CONTROL FOR STRESS PERIOD   11   TIME STEP   30



 STREAM LISTING     PERIOD     11   STEP       30

 LAYER ROW COL. STREAM  RCH.  FLOW INTO     FLOW TO   FLOW OUT OF   OVRLND.     DIRECT     STREAM       STREAM     STREAM     STREAM   STREAMBED  STREAMBED
                SEG.NO.  NO.  STRM. RCH.    AQUIFER    STRM. RCH.    RUNOFF     PRECIP       ET          HEAD       DEPTH      WIDTH   CONDCTNC.   GRADIENT

   1    1    1     1     1    3.5000E+01  2.8629E-01   3.4713E+01  0.000E+00  0.000E+00  0.000E+00  1.09434E+03  1.292E+00  1.482E+01  6.670E-02  1.431E+00
   1    2    2     1     2    3.4713E+01  4.4324E-01   3.4270E+01  0.000E+00  0.000E+00  0.000E+00  1.08935E+03  1.289E+00  1.476E+01  1.033E-01  1.430E+00
   1    3    3     1     3    3.4270E+01  3.7790E-01   3.3892E+01  0.000E+00  0.000E+00  0.000E+00  1.08370E+03  1.286E+00  1.470E+01  8.817E-02  1.429E+00
   1    3    4     1     4    3.3892E+01  3.4789E-01   3.3544E+01  0.000E+00  0.000E+00  0.000E+00  1.07869E+03  1.283E+00  1.464E+01  8.123E-02  1.428E+00
   1    4    5     2     1    3.1544E+01  3.4194E-01   3.1202E+01  0.000E+00  0.000E+00  0.000E+00  1.07332E+03  1.384E+00  1.200E+01  7.800E-02  1.461E+00
   1    5    6     2     2    3.1202E+01  2.6255E-01   3.0940E+01  0.000E+00  0.000E+00  0.000E+00  1.06789E+03  1.376E+00  1.200E+01  6.000E-02  1.459E+00
   1    6    6     2     3    3.0940E+01  2.6213E-01   3.0678E+01  0.000E+00  0.000E+00  0.000E+00  1.06316E+03  1.369E+00  1.200E+01  6.000E-02  1.456E+00
   1    7    6     2     4    3.0678E+01  2.6171E-01   3.0416E+01  0.000E+00  0.000E+00  0.000E+00  1.05844E+03  1.362E+00  1.200E+01  6.000E-02  1.454E+00
   1    8    6     2     5    3.0416E+01  2.6129E-01   3.0155E+01  0.000E+00  0.000E+00  0.000E+00  1.05371E+03  1.355E+00  1.200E+01  6.000E-02  1.452E+00
   1    3    5     3     1    2.0000E+00  2.8252E-01   1.7175E+00  0.000E+00  0.000E+00  0.000E+00  1.07555E+03  1.909E+00  9.636E+00  7.227E-02  1.955E+00
   1    3    6     3     2    1.7175E+00  2.4905E-01   1.4684E+00  0.000E+00  0.000E+00  0.000E+00  1.07264E+03  1.727E+00  8.909E+00  6.682E-02  1.864E+00
   1    3    7     3     3    1.4684E+00  1.9718E-01   1.2712E+00  0.000E+00  0.000E+00  0.000E+00  1.06987E+03  1.555E+00  8.218E+00  5.547E-02  1.777E+00
   1    4    8     3     4    1.2712E+00  2.2567E-01   1.0456E+00  0.000E+00  0.000E+00  0.000E+00  1.06682E+03  1.364E+00  7.455E+00  6.709E-02  1.682E+00
   1    5    8     3     5    1.0456E+00  1.5790E-01   8.8768E-01  0.000E+00  0.000E+00  0.000E+00  1.06362E+03  1.164E+00  6.655E+00  4.991E-02  1.582E+00
   1    6    8     3     6    8.8768E-01  5.5980E-02   8.3170E-01  0.000E+00  0.000E+00  0.000E+00  1.06158E+03  1.036E+00  6.145E+00  1.844E-02  1.518E+00
   1    5   10     4     1    1.0000E+01  9.0919E-02   9.9091E+00  0.000E+00  0.000E+00  0.000E+00  1.07836E+03  6.368E-01  1.000E+01  2.500E-02  1.212E+00
   1    5    9     4     2    9.9091E+00  1.8158E-01   9.7275E+00  0.000E+00  0.000E+00  0.000E+00  1.07154E+03  6.315E-01  1.000E+01  5.000E-02  1.211E+00
   1    6    8     4     3    9.7275E+00  1.2689E-01   9.6006E+00  0.000E+00  0.000E+00  0.000E+00  1.06381E+03  6.256E-01  1.000E+01  3.500E-02  1.209E+00
   1    6    8     5     1    1.0432E+01  2.2686E-01   1.0205E+01  0.000E+00  0.000E+00  0.000E+00  1.05868E+03  6.790E-01  1.542E+01  6.166E-02  1.226E+00
   1    7    7     5     2    1.0205E+01  2.7894E-01   9.9265E+00  0.000E+00  0.000E+00  0.000E+00  1.05417E+03  6.732E-01  1.519E+01  7.594E-02  1.224E+00
   1    8    7     5     3    9.9265E+00  1.9221E-01   9.7343E+00  0.000E+00  0.000E+00  0.000E+00  1.04992E+03  6.676E-01  1.497E+01  5.241E-02  1.223E+00
   1    8    6     5     4    9.7343E+00  1.3577E-01   9.5985E+00  0.000E+00  0.000E+00  0.000E+00  1.04691E+03  6.637E-01  1.482E+01  3.706E-02  1.221E+00
   1    9    6     6     1    3.9753E+01  2.7657E-01   3.9477E+01  0.000E+00  0.000E+00  0.000E+00  1.04434E+03  1.609E+00  1.200E+01  6.000E-02  1.536E+00
   1   10    7     6     2    3.9477E+01  2.7616E-01   3.9201E+01  0.000E+00  0.000E+00  0.000E+00  1.03978E+03  1.603E+00  1.200E+01  6.000E-02  1.534E+00
   1   11    7     6     3    3.9201E+01  2.7576E-01   3.8925E+01  0.000E+00  0.000E+00  0.000E+00  1.03523E+03  1.596E+00  1.200E+01  6.000E-02  1.532E+00
   1   12    7     6     4    3.8925E+01  2.7535E-01   3.8649E+01  0.000E+00  0.000E+00  0.000E+00  1.03068E+03  1.589E+00  1.200E+01  6.000E-02  1.530E+00
   1   13    7     6     5    3.8649E+01  6.4521E-03   3.8643E+01  0.000E+00  0.000E+00  0.000E+00  1.02749E+03  1.586E+00  1.200E+01  2.400E-02  8.961E-02
   1   14    9     7     1    1.5000E+02  1.3303E+00   1.4867E+02  0.000E+00  0.000E+00  0.000E+00  1.03987E+03  2.288E+00  5.529E+01  5.593E-01  7.928E-01
   1   13    8     7     2    1.4867E+02  1.7942E+00   1.4688E+02  0.000E+00  0.000E+00  0.000E+00  1.03478E+03  2.279E+00  5.526E+01  6.148E-01  9.728E-01
   1   13    7     7     3    1.4688E+02  1.3763E+00   1.4550E+02  0.000E+00  0.000E+00  0.000E+00  1.02969E+03  2.271E+00  5.522E+01  5.585E-01  8.214E-01
   1   13    6     8     1    1.8414E+02  8.8358E-01   1.8326E+02  0.000E+00  0.000E+00  0.000E+00  1.02491E+03  3.039E+00  4.407E+01  4.491E-01  6.558E-01
   1   13    5     8     2    1.8326E+02  1.2522E-01   1.8313E+02  0.000E+00  0.000E+00  0.000E+00  1.01866E+03  3.036E+00  4.402E+01  4.486E-01  9.304E-02
   1   13    4     8     3    1.8313E+02 -2.6200E+00   1.8575E+02  0.000E+00  0.000E+00  0.000E+00  1.01242E+03  3.044E+00  4.414E+01  4.498E+00 -1.942E-01
   1   13    3     8     4    1.8575E+02 -3.7516E+00   1.8951E+02  0.000E+00  0.000E+00  0.000E+00  1.00619E+03  3.063E+00  4.442E+01  4.527E+00 -2.763E-01
   1   13    2     8     5    1.8951E+02 -2.6149E+00   1.9212E+02  0.000E+00  0.000E+00  0.000E+00  9.99958E+02  3.083E+00  4.470E+01  4.555E+00 -1.913E-01
   1   13    1     8     6    1.9212E+02 -2.0205E+00   1.9414E+02  0.000E+00  0.000E+00  0.000E+00  9.94972E+02  3.097E+00  4.490E+01  2.746E+00 -2.453E-01





UNSATURATED ZONE PACKAGE VOLUMETRIC BUDGET FOR  TIME STEP    30 STRESS PERIOD   11
  ------------------------------------------------------------------------------



     CUMULATIVE VOLUMES      L**3       RATES FOR THIS TIME STEP      L**3/T
     ------------------                 ------------------------

           IN:                                      IN:
           ---                                      ---
        INFILTRATION =   514268253.0291          INFILTRATION =           4.4075

          OUT:                                     OUT:
          ----                                     ----
              UZF ET =   494276205.7737                UZF ET =           3.7800
        UZF RECHARGE =       73224.0000          UZF RECHARGE =       0.0000E+00

            IN - OUT =    19918823.2554              IN - OUT =           0.6275

          STORAGE:                                 STORAGE:
          --------                                 --------
      STORAGE CHANGE =    19918812.2256        STORAGE CHANGE =           0.6275

 PERCENT DISCREPANCY IS DIFFERENCE BETWEEN IN-OUT MINUS CHANGE IN STORAGE
 DIVIDED BY THE AVERAGE OF IN AND OUT TIMES 100

 PERCENT DISCREPANCY =           0.00     PERCENT DISCREPANCY =           0.00






1
  VOLUMETRIC BUDGET FOR AGRICULTURAL FIELDS AT TIME STEP   30, STRESS PERIOD  11
  ------------------------------------------------------------------------------

     CUMULATIVE VOLUMES      L**3       RATES FOR THIS TIME STEP      L**3/T
     ------------------                 ------------------------

           IN:                                      IN:
           ---                                      ---
               AG WELLS  =   398277792.0000                 AG WELLS  =           0.0000
      DIVERSION SEGMENTS =           0.0000        DIVERSION SEGMENTS =           0.0000
           GW IRRIGATION =           0.0000             GW IRRIGATION =           0.0000
           SW IRRIGATION =           0.0000             SW IRRIGATION =           0.0000
        SYSTEM LOSSES GW =           0.0000          SYSTEM LOSSES GW =           0.0000
        SYSTEM LOSSES SW =           0.0000          SYSTEM LOSSES SW =           0.0000

                TOTAL IN =   398277792.0000                  TOTAL IN =           0.0000

          OUT:                                     OUT:
          ----                                     ----
               AG WELLS  =           0.0000                 AG WELLS  =           0.0000
      DIVERSION SEGMENTS =           0.0000        DIVERSION SEGMENTS =           0.0000
           GW IRRIGATION =   398277792.0000             GW IRRIGATION =           0.0000
           SW IRRIGATION =           0.0000             SW IRRIGATION =           0.0000
        SYSTEM LOSSES GW =           0.0000          SYSTEM LOSSES GW =           0.0000
        SYSTEM LOSSES SW =           0.0000          SYSTEM LOSSES SW =           0.0000

               TOTAL OUT =   398277792.0000                 TOTAL OUT =           0.0000

                IN - OUT =           0.0000                  IN - OUT =           0.0000

     PERCENT DISCREPANCY =           0.00         PERCENT DISCREPANCY =           0.00



1
  VOLUMETRIC BUDGET FOR ENTIRE MODEL AT END OF TIME STEP   30, STRESS PERIOD  11
  ------------------------------------------------------------------------------

     CUMULATIVE VOLUMES      L**3       RATES FOR THIS TIME STEP      L**3/T
     ------------------                 ------------------------

           IN:                                      IN:
           ---                                      ---
             STORAGE     =   474190688.0000               STORAGE     =          12.6603
       CONSTANT HEAD     =           0.0000         CONSTANT HEAD     =           0.0000
     HEAD DEP BOUNDS     =     7531934.5000       HEAD DEP BOUNDS     =           0.2854
      STREAM LEAKAGE     =   334125856.0000        STREAM LEAKAGE     =          11.8662
        UZF RECHARGE     =       73223.9531          UZF RECHARGE     =           0.0000
               GW ET     =           0.0000                 GW ET     =           0.0000
     SURFACE LEAKAGE     =           0.0000       SURFACE LEAKAGE     =           0.0000
           AG WELLS      =           0.0000             AG WELLS      =           0.0000

                TOTAL IN =   815921664.0000                  TOTAL IN =          24.8119

          OUT:                                     OUT:
          ----                                     ----
             STORAGE     =   125847848.0000               STORAGE     =          13.5094
       CONSTANT HEAD     =           0.0000         CONSTANT HEAD     =           0.0000
     HEAD DEP BOUNDS     =     7792491.5000       HEAD DEP BOUNDS     =           0.2929
      STREAM LEAKAGE     =   270413056.0000        STREAM LEAKAGE     =          11.0071
        UZF RECHARGE     =           0.0000          UZF RECHARGE     =           0.0000
               GW ET     =    13594306.0000                 GW ET     =       2.6220E-03
     SURFACE LEAKAGE     =           0.0000       SURFACE LEAKAGE     =           0.0000
           AG WELLS      =   398277792.0000             AG WELLS      =           0.0000

               TOTAL OUT =   815925504.0000                 TOTAL OUT =          24.8119

                IN - OUT =       -3840.0000                  IN - OUT =       5.7220E-06

     PERCENT DISCREPANCY =          -0.00         PERCENT DISCREPANCY =           0.00






         TIME SUMMARY AT END OF TIME STEP   30 IN STRESS PERIOD   11
                    SECONDS     MINUTES      HOURS       DAYS        YEARS
                    -----------------------------------------------------------
   TIME STEP LENGTH  87667.      1461.1      24.352      1.0147     2.77799E-03
 STRESS PERIOD TIME 2.63000E+06  43833.      730.56      30.440     8.33397E-02
         TOTAL TIME 2.63864E+07 4.39773E+05  7329.5      305.40     0.83613    
1
1
                            STRESS PERIOD NO.   12, LENGTH =   2630000.    
                            -----------------------------------------------

                              NUMBER OF TIME STEPS =    30

                               MULTIPLIER FOR DELT =     1.000

                            INITIAL TIME STEP SIZE =   87666.66    

 REUSING NON-PARAMETER GHB CELLS FROM LAST STRESS PERIOD

      2 GHB CELLS

 REUSING STREAM SEGMENT DATA FROM LAST STRESS PERIOD



            AREAL INFILTRATION RATE
 READING ON UNIT   19 WITH FORMAT: (10F4.0)            

            1           2           3           4           5           6           7           8           9          10
 ........................................................................................................................
   1   1.2000E-09   0.000       0.000       0.000       0.000       0.000       0.000       0.000       0.000       0.000    
   2   2.1000E-09  2.0000E-09  8.0000E-10  8.5000E-09   0.000       0.000       0.000       0.000       0.000       0.000    
   3   5.0000E-10  1.1000E-09  8.8000E-09  5.5000E-09   0.000       0.000       0.000       0.000       0.000       0.000    
   4   8.5000E-09  1.1000E-09  1.1000E-09  1.1000E-09  2.0000E-09   0.000       0.000       0.000       0.000       0.000    
   5   8.5000E-09  1.1000E-09  1.1000E-09  1.1000E-09  1.1000E-09   0.000       0.000       0.000       0.000       0.000    
   6   8.5000E-09  5.2000E-09  2.1000E-09  1.1000E-09  1.5000E-09   0.000       0.000       0.000       0.000       0.000    
   7   8.5000E-09  5.2000E-09  2.1000E-09  1.2000E-09  2.0000E-09   0.000       0.000       0.000       0.000       0.000    
   8   5.0000E-10  5.2000E-09  2.1000E-09  1.2000E-09  5.0000E-09   0.000       0.000       0.000       0.000       0.000    
   9   5.0000E-10  5.2000E-09  2.1000E-09  1.2000E-09  5.0000E-09   0.000       0.000       0.000       0.000       0.000    
  10   5.0000E-10  5.2000E-09  2.1000E-09  1.2000E-09  5.8000E-09   0.000       0.000       0.000       0.000       0.000    
  11   1.0000E-10  1.1000E-09  1.1000E-09  1.2000E-09  5.0000E-09   0.000       0.000       0.000       0.000       0.000    
  12   1.1000E-09  1.1000E-09  1.1000E-09  1.1000E-09  2.0000E-09   0.000       0.000       0.000       0.000       0.000    
  13   1.1000E-09  2.2000E-09  2.2000E-09  2.1000E-09  1.0000E-09   0.000       0.000       0.000       0.000       0.000    
  14   2.0000E-10  5.5000E-09  5.5000E-09  5.2000E-09  1.0000E-09   0.000       0.000       0.000       0.000       0.000    
  15    0.000      8.8000E-09  8.8000E-09   0.000       0.000       0.000       0.000       0.000       0.000       0.000    

                  ET RATE =  5.000000E-10

 USING ET EXTINCTION DEPTH FROM PREVIOUS STRESS PERIOD. CURRENT PERIOD IS:      12

 USING EXTINCTION WATER CONTENT FROM PREVIOUS STRESS PERIOD. CURRENT PERIOD IS:      12

 USING AIR ENTRY PRESSURE FROM PREVIOUS STRESS PERIOD. CURRENT PERIOD IS:      12

 USING ROOT PRESSURE HEAD FROM PREVIOUS STRESS PERIOD. CURRENT PERIOD IS:      12

 USING ROOT ACTIVITY FROM PREVIOUS STRESS PERIOD. CURRENT PERIOD IS:      12

 PROCESSING AG STRESS PERIOD DATA

 READING AG STRESS PERIOD DATA

 READING IRRIGATION WELL

 END PROCESSING AG STRESS PERIOD DATA OPTIONS
 
 SOLVING FOR HEAD 
                                                   Max.-Head-Change                         Max.-Flux-Residual
  Residual-Control   Outer-Iter.   Inner-Iter.     Column Row Layer    Maximum-Head-Change  Column Row Layer    Maximum-Flux-Residual          L2-NORM 
          0                 1           2             4    7     1       0.4810761311E-01       4    7    1         0.2536087913E+01      0.5207528839E+01
          0                 2           2             4    7     1      -0.4679605770E-02       4    7    1        -0.2536119786E+00      0.5206923954E+00
          0                 3           2             4    7     1       0.3186633465E-03       4    7    1         0.1775281601E-01      0.3644283780E-01
          0                 4           1             4    7     1      -0.1267991467E-04       4    7    1        -0.7260913253E-03      0.1490169517E-02

    ------------------------------------------------
       NWT REQUIRED            4 OUTER ITERATIONS 
       AND A TOTAL OF          7 INNER ITERATIONS.
    ------------------------------------------------

 NO OUTPUT CONTROL FOR STRESS PERIOD   12   TIME STEP    1
 
 SOLVING FOR HEAD 
                                                   Max.-Head-Change                         Max.-Flux-Residual
  Residual-Control   Outer-Iter.   Inner-Iter.     Column Row Layer    Maximum-Head-Change  Column Row Layer    Maximum-Flux-Residual          L2-NORM 
          0                 1           2             4    7     1       0.4741499128E-01       4    7    1         0.2499585526E+01      0.5137678085E+01
          0                 2           2             4    7     1      -0.4612231492E-02       4    7    1        -0.2499616673E+00      0.5136965926E+00
          0                 3           2             4    7     1       0.3140754185E-03       4    7    1         0.1749729481E-01      0.3595218064E-01
          0                 4           1             4    7     1      -0.1249735695E-04       4    7    1        -0.7156404931E-03      0.1470025428E-02

    ------------------------------------------------
       NWT REQUIRED            4 OUTER ITERATIONS 
       AND A TOTAL OF          7 INNER ITERATIONS.
    ------------------------------------------------

 NO OUTPUT CONTROL FOR STRESS PERIOD   12   TIME STEP    2
 
 SOLVING FOR HEAD 
                                                   Max.-Head-Change                         Max.-Flux-Residual
  Residual-Control   Outer-Iter.   Inner-Iter.     Column Row Layer    Maximum-Head-Change  Column Row Layer    Maximum-Flux-Residual          L2-NORM 
          0                 1           2             4    7     1       0.4673238364E-01       4    7    1         0.2463600944E+01      0.5064239276E+01
          0                 2           2             4    7     1      -0.4545831329E-02       4    7    1        -0.2463631372E+00      0.5063612374E+00
          0                 3           2             4    7     1       0.3095538236E-03       4    7    1         0.1724539826E-01      0.3543945164E-01
          0                 4           1             4    7     1      -0.1231743818E-04       4    7    1        -0.7053378965E-03      0.1449083600E-02

    ------------------------------------------------
       NWT REQUIRED            4 OUTER ITERATIONS 
       AND A TOTAL OF          7 INNER ITERATIONS.
    ------------------------------------------------

 NO OUTPUT CONTROL FOR STRESS PERIOD   12   TIME STEP    3
 
 SOLVING FOR HEAD 
                                                   Max.-Head-Change                         Max.-Flux-Residual
  Residual-Control   Outer-Iter.   Inner-Iter.     Column Row Layer    Maximum-Head-Change  Column Row Layer    Maximum-Flux-Residual          L2-NORM 
          0                 1           2             4    7     1       0.4605979691E-01       4    7    1         0.2428135567E+01      0.4992632902E+01
          0                 2           2             4    7     1      -0.4480405936E-02       4    7    1        -0.2428165283E+00      0.4992079998E+00
          0                 3           2             4    7     1       0.3050986073E-03       4    7    1         0.1699713620E-01      0.3493943896E-01
          0                 4           1             4    7     1      -0.1214016113E-04       4    7    1        -0.6951839780E-03      0.1428744872E-02

    ------------------------------------------------
       NWT REQUIRED            4 OUTER ITERATIONS 
       AND A TOTAL OF          7 INNER ITERATIONS.
    ------------------------------------------------

 NO OUTPUT CONTROL FOR STRESS PERIOD   12   TIME STEP    4
 
 SOLVING FOR HEAD 
                                                   Max.-Head-Change                         Max.-Flux-Residual
  Residual-Control   Outer-Iter.   Inner-Iter.     Column Row Layer    Maximum-Head-Change  Column Row Layer    Maximum-Flux-Residual          L2-NORM 
          0                 1           2             4    7     1       0.4539736278E-01       4    7    1         0.2393197068E+01      0.4922775188E+01
          0                 2           2             4    7     1      -0.4415968127E-02       4    7    1        -0.2393226080E+00      0.4922258726E+00
          0                 3           2             4    7     1       0.3007106415E-03       4    7    1         0.1675256235E-01      0.3445124718E-01
          0                 4           1             4    7     1      -0.1196556011E-04       4    7    1        -0.6851808878E-03      0.1408769667E-02

    ------------------------------------------------
       NWT REQUIRED            4 OUTER ITERATIONS 
       AND A TOTAL OF          7 INNER ITERATIONS.
    ------------------------------------------------

 NO OUTPUT CONTROL FOR STRESS PERIOD   12   TIME STEP    5
 
 SOLVING FOR HEAD 
                                                   Max.-Head-Change                         Max.-Flux-Residual
  Residual-Control   Outer-Iter.   Inner-Iter.     Column Row Layer    Maximum-Head-Change  Column Row Layer    Maximum-Flux-Residual          L2-NORM 
          0                 1           2             4    7     1       0.4474478343E-01       4    7    1         0.2358770306E+01      0.4854580973E+01
          0                 2           2             4    7     1      -0.4352488932E-02       4    7    1        -0.2358798621E+00      0.4854151536E+00
          0                 3           2             4    7     1       0.2963879537E-03       4    7    1         0.1651157069E-01      0.3397498915E-01
          0                 4           1             4    7     1      -0.1179355591E-04       4    7    1        -0.6753243158E-03      0.1389301531E-02

    ------------------------------------------------
       NWT REQUIRED            4 OUTER ITERATIONS 
       AND A TOTAL OF          7 INNER ITERATIONS.
    ------------------------------------------------

 NO OUTPUT CONTROL FOR STRESS PERIOD   12   TIME STEP    6
 
 SOLVING FOR HEAD 
                                                   Max.-Head-Change                         Max.-Flux-Residual
  Residual-Control   Outer-Iter.   Inner-Iter.     Column Row Layer    Maximum-Head-Change  Column Row Layer    Maximum-Flux-Residual          L2-NORM 
          0                 1           2             4    7     1       0.4410216719E-01       4    7    1         0.2324861809E+01      0.4787983426E+01
          0                 2           2             4    7     1      -0.4289978889E-02       4    7    1        -0.2324889437E+00      0.4787603698E+00
          0                 3           2             4    7     1       0.2921312611E-03       4    7    1         0.1627420695E-01      0.3350975693E-01
          0                 4           1             4    7     1      -0.1162417834E-04       4    7    1        -0.6656161129E-03      0.1370402601E-02

    ------------------------------------------------
       NWT REQUIRED            4 OUTER ITERATIONS 
       AND A TOTAL OF          7 INNER ITERATIONS.
    ------------------------------------------------

 NO OUTPUT CONTROL FOR STRESS PERIOD   12   TIME STEP    7
 
 SOLVING FOR HEAD 
                                                   Max.-Head-Change                         Max.-Flux-Residual
  Residual-Control   Outer-Iter.   Inner-Iter.     Column Row Layer    Maximum-Head-Change  Column Row Layer    Maximum-Flux-Residual          L2-NORM 
          0                 1           2             4    7     1       0.4346959973E-01       4    7    1         0.2291477195E+01      0.4722921228E+01
          0                 2           2             4    7     1      -0.4228446333E-02       4    7    1        -0.2291504148E+00      0.4722584913E+00
          0                 3           2             4    7     1       0.2879411318E-03       4    7    1         0.1604051046E-01      0.3305487015E-01
          0                 4           1             4    7     1      -0.1145744894E-04       4    7    1        -0.6560579068E-03      0.1351731305E-02

    ------------------------------------------------
       NWT REQUIRED            4 OUTER ITERATIONS 
       AND A TOTAL OF          7 INNER ITERATIONS.
    ------------------------------------------------

 NO OUTPUT CONTROL FOR STRESS PERIOD   12   TIME STEP    8
 
 SOLVING FOR HEAD 
                                                   Max.-Head-Change                         Max.-Flux-Residual
  Residual-Control   Outer-Iter.   Inner-Iter.     Column Row Layer    Maximum-Head-Change  Column Row Layer    Maximum-Flux-Residual          L2-NORM 
          0                 1           2             4    7     1       0.4284688280E-01       4    7    1         0.2258606258E+01      0.4659339612E+01
          0                 2           2             4    7     1      -0.4167871981E-02       4    7    1        -0.2258632545E+00      0.4659210805E+00
          0                 3           2             4    7     1       0.2838162528E-03       4    7    1         0.1581040977E-01      0.3261148214E-01
          0                 4           1             4    7     1      -0.1129331624E-04       4    7    1        -0.6466467923E-03      0.1333611355E-02

    ------------------------------------------------
       NWT REQUIRED            4 OUTER ITERATIONS 
       AND A TOTAL OF          7 INNER ITERATIONS.
    ------------------------------------------------

 NO OUTPUT CONTROL FOR STRESS PERIOD   12   TIME STEP    9
 
 SOLVING FOR HEAD 
                                                   Max.-Head-Change                         Max.-Flux-Residual
  Residual-Control   Outer-Iter.   Inner-Iter.     Column Row Layer    Maximum-Head-Change  Column Row Layer    Maximum-Flux-Residual          L2-NORM 
          0                 1           2             4    7     1       0.4223421393E-01       4    7    1         0.2226260696E+01      0.4597131556E+01
          0                 2           2             4    7     1      -0.4108275049E-02       4    7    1        -0.2226286330E+00      0.4596866374E+00
          0                 3           2             4    7     1       0.2797579317E-03       4    7    1         0.1558398679E-01      0.3217556618E-01
          0                 4           1             4    7     1      -0.1113183159E-04       4    7    1        -0.6373860501E-03      0.1315836661E-02

    ------------------------------------------------
       NWT REQUIRED            4 OUTER ITERATIONS 
       AND A TOTAL OF          7 INNER ITERATIONS.
    ------------------------------------------------

 NO OUTPUT CONTROL FOR STRESS PERIOD   12   TIME STEP   10
 
 SOLVING FOR HEAD 
                                                   Max.-Head-Change                         Max.-Flux-Residual
  Residual-Control   Outer-Iter.   Inner-Iter.     Column Row Layer    Maximum-Head-Change  Column Row Layer    Maximum-Flux-Residual          L2-NORM 
          0                 1           2             4    7     1       0.4163124135E-01       4    7    1         0.2194421447E+01      0.4536313026E+01
          0                 2           2             4    7     1      -0.4049621317E-02       4    7    1        -0.2194446438E+00      0.4536076517E+00
          0                 3           2             4    7     1       0.2757638391E-03       4    7    1         0.1536110804E-01      0.3175025677E-01
          0                 4           1             4    7     1      -0.1097290289E-04       4    7    1        -0.6282703009E-03      0.1298461300E-02

    ------------------------------------------------
       NWT REQUIRED            4 OUTER ITERATIONS 
       AND A TOTAL OF          7 INNER ITERATIONS.
    ------------------------------------------------

 NO OUTPUT CONTROL FOR STRESS PERIOD   12   TIME STEP   11
 
 SOLVING FOR HEAD 
                                                   Max.-Head-Change                         Max.-Flux-Residual
  Residual-Control   Outer-Iter.   Inner-Iter.     Column Row Layer    Maximum-Head-Change  Column Row Layer    Maximum-Flux-Residual          L2-NORM 
          0                 1           2             4    7     1       0.4103801350E-01       4    7    1         0.2163092252E+01      0.4476798333E+01
          0                 2           2             4    7     1      -0.3991915499E-02       4    7    1        -0.2163116612E+00      0.4476587203E+00
          0                 3           2             4    7     1       0.2718342960E-03       4    7    1         0.1514179978E-01      0.3133404222E-01
          0                 4           1             4    7     1      -0.1081654211E-04       4    7    1        -0.6193005643E-03      0.1281406975E-02

    ------------------------------------------------
       NWT REQUIRED            4 OUTER ITERATIONS 
       AND A TOTAL OF          7 INNER ITERATIONS.
    ------------------------------------------------

 NO OUTPUT CONTROL FOR STRESS PERIOD   12   TIME STEP   12
 
 SOLVING FOR HEAD 
                                                   Max.-Head-Change                         Max.-Flux-Residual
  Residual-Control   Outer-Iter.   Inner-Iter.     Column Row Layer    Maximum-Head-Change  Column Row Layer    Maximum-Flux-Residual          L2-NORM 
          0                 1           2             4    7     1       0.4045443143E-01       4    7    1         0.2132268295E+01      0.4418553708E+01
          0                 2           2             4    7     1      -0.3935147972E-02       4    7    1        -0.2132292038E+00      0.4418365395E+00
          0                 3           2             4    7     1       0.2679686466E-03       4    7    1         0.1492602823E-01      0.3092671326E-01
          0                 4           1             4    7     1      -0.1066272484E-04       4    7    1        -0.6104755141E-03      0.1264770870E-02

    ------------------------------------------------
       NWT REQUIRED            4 OUTER ITERATIONS 
       AND A TOTAL OF          7 INNER ITERATIONS.
    ------------------------------------------------

 NO OUTPUT CONTROL FOR STRESS PERIOD   12   TIME STEP   13
 
 SOLVING FOR HEAD 
                                                   Max.-Head-Change                         Max.-Flux-Residual
  Residual-Control   Outer-Iter.   Inner-Iter.     Column Row Layer    Maximum-Head-Change  Column Row Layer    Maximum-Flux-Residual          L2-NORM 
          0                 1           2             4    7     1       0.3988052715E-01       4    7    1         0.2101951777E+01      0.4361529854E+01
          0                 2           2             4    7     1      -0.3879321847E-02       4    7    1        -0.2101974915E+00      0.4361360494E+00
          0                 3           2             4    7     1       0.2641671032E-03       4    7    1         0.1471380886E-01      0.3052783729E-01
          0                 4           1             4    7     1      -0.1051145788E-04       4    7    1        -0.6017957182E-03      0.1248490002E-02

    ------------------------------------------------
       NWT REQUIRED            4 OUTER ITERATIONS 
       AND A TOTAL OF          7 INNER ITERATIONS.
    ------------------------------------------------

 NO OUTPUT CONTROL FOR STRESS PERIOD   12   TIME STEP   14
 
 SOLVING FOR HEAD 
                                                   Max.-Head-Change                         Max.-Flux-Residual
  Residual-Control   Outer-Iter.   Inner-Iter.     Column Row Layer    Maximum-Head-Change  Column Row Layer    Maximum-Flux-Residual          L2-NORM 
          0                 1           2             4    7     1       0.3931605011E-01       4    7    1         0.2072129698E+01      0.4305687986E+01
          0                 2           2             4    7     1      -0.3824412755E-02       4    7    1        -0.2072152243E+00      0.4305537013E+00
          0                 3           2             4    7     1       0.2604280061E-03       4    7    1         0.1450505063E-01      0.3013733043E-01
          0                 4           1             4    7     1      -0.1036267549E-04       4    7    1        -0.5932574907E-03      0.1232568574E-02

    ------------------------------------------------
       NWT REQUIRED            4 OUTER ITERATIONS 
       AND A TOTAL OF          7 INNER ITERATIONS.
    ------------------------------------------------

 NO OUTPUT CONTROL FOR STRESS PERIOD   12   TIME STEP   15
 
 SOLVING FOR HEAD 
                                                   Max.-Head-Change                         Max.-Flux-Residual
  Residual-Control   Outer-Iter.   Inner-Iter.     Column Row Layer    Maximum-Head-Change  Column Row Layer    Maximum-Flux-Residual          L2-NORM 
          0                 1           2             4    7     1       0.3876088599E-01       4    7    1         0.2042796398E+01      0.4250991809E+01
          0                 2           2             4    7     1      -0.3770409574E-02       4    7    1        -0.2042818363E+00      0.4250855223E+00
          0                 3           2             4    7     1       0.2567505982E-03       4    7    1         0.1429971393E-01      0.2975465337E-01
          0                 4           1             4    7     1      -0.1021634842E-04       4    7    1        -0.5848592205E-03      0.1216920854E-02

    ------------------------------------------------
       NWT REQUIRED            4 OUTER ITERATIONS 
       AND A TOTAL OF          7 INNER ITERATIONS.
    ------------------------------------------------

 NO OUTPUT CONTROL FOR STRESS PERIOD   12   TIME STEP   16
 
 SOLVING FOR HEAD 
                                                   Max.-Head-Change                         Max.-Flux-Residual
  Residual-Control   Outer-Iter.   Inner-Iter.     Column Row Layer    Maximum-Head-Change  Column Row Layer    Maximum-Flux-Residual          L2-NORM 
          0                 1           2             4    7     1       0.3821518537E-01       4    7    1         0.2013960611E+01      0.4197403258E+01
          0                 2           2             4    7     1      -0.3717326953E-02       4    7    1        -0.2013982010E+00      0.4197279793E+00
          0                 3           2             4    7     1       0.2531358767E-03       4    7    1         0.1409785991E-01      0.2937974106E-01
          0                 4           1             4    7     1      -0.1007251491E-04       4    7    1        -0.5766033785E-03      0.1201586390E-02

    ------------------------------------------------
       NWT REQUIRED            4 OUTER ITERATIONS 
       AND A TOTAL OF          7 INNER ITERATIONS.
    ------------------------------------------------

 NO OUTPUT CONTROL FOR STRESS PERIOD   12   TIME STEP   17
 
 SOLVING FOR HEAD 
                                                   Max.-Head-Change                         Max.-Flux-Residual
  Residual-Control   Outer-Iter.   Inner-Iter.     Column Row Layer    Maximum-Head-Change  Column Row Layer    Maximum-Flux-Residual          L2-NORM 
          0                 1           2             4    7     1       0.3767854658E-01       4    7    1         0.1985600822E+01      0.4144894488E+01
          0                 2           2             4    7     1      -0.3665125819E-02       4    7    1        -0.1985621666E+00      0.4144782945E+00
          0                 3           2             4    7     1       0.2495811810E-03       4    7    1         0.1389933795E-01      0.2901236162E-01
          0                 4           1             4    7     1      -0.9931070289E-05       4    7    1        -0.5684838093E-03      0.1186572838E-02

    ------------------------------------------------
       NWT REQUIRED            4 OUTER ITERATIONS 
       AND A TOTAL OF          7 INNER ITERATIONS.
    ------------------------------------------------

 NO OUTPUT CONTROL FOR STRESS PERIOD   12   TIME STEP   18
 
 SOLVING FOR HEAD 
                                                   Max.-Head-Change                         Max.-Flux-Residual
  Residual-Control   Outer-Iter.   Inner-Iter.     Column Row Layer    Maximum-Head-Change  Column Row Layer    Maximum-Flux-Residual          L2-NORM 
          0                 1           2             4    7     1       0.3715097984E-01       4    7    1         0.1957718198E+01      0.4093419613E+01
          0                 2           2             4    7     1      -0.3613807167E-02       4    7    1        -0.1957738502E+00      0.4093318061E+00
          0                 3           2             4    7     1       0.2460865787E-03       4    7    1         0.1370415622E-01      0.2865222740E-01
          0                 4           1             4    7     1      -0.9792016755E-05       4    7    1        -0.5605008610E-03      0.1171834787E-02

    ------------------------------------------------
       NWT REQUIRED            4 OUTER ITERATIONS 
       AND A TOTAL OF          7 INNER ITERATIONS.
    ------------------------------------------------

 NO OUTPUT CONTROL FOR STRESS PERIOD   12   TIME STEP   19
 
 SOLVING FOR HEAD 
                                                   Max.-Head-Change                         Max.-Flux-Residual
  Residual-Control   Outer-Iter.   Inner-Iter.     Column Row Layer    Maximum-Head-Change  Column Row Layer    Maximum-Flux-Residual          L2-NORM 
          0                 1           2             4    7     1       0.3663234966E-01       4    7    1         0.1930305939E+01      0.4042957486E+01
          0                 2           2             4    7     1      -0.3563354666E-02       4    7    1        -0.1930325714E+00      0.4041848451E+00
          0                 3           2             4    7     1       0.2426509579E-03       4    7    1         0.1351226713E-01      0.2829204789E-01
          0                 4           1             4    7     1      -0.9655309983E-05       4    7    1        -0.5526525831E-03      0.1157089997E-02

    ------------------------------------------------
       NWT REQUIRED            4 OUTER ITERATIONS 
       AND A TOTAL OF          7 INNER ITERATIONS.
    ------------------------------------------------

 NO OUTPUT CONTROL FOR STRESS PERIOD   12   TIME STEP   20
 
 SOLVING FOR HEAD 
                                                   Max.-Head-Change                         Max.-Flux-Residual
  Residual-Control   Outer-Iter.   Inner-Iter.     Column Row Layer    Maximum-Head-Change  Column Row Layer    Maximum-Flux-Residual          L2-NORM 
          0                 1           2             4    7     1       0.3612267371E-01       4    7    1         0.1903364521E+01      0.3993563998E+01
          0                 2           2             4    7     1      -0.3513779491E-02       4    7    1        -0.1903383779E+00      0.3993481817E+00
          0                 3           2             4    7     1       0.2392750798E-03       4    7    1         0.1332367399E-01      0.2795354645E-01
          0                 4           1             4    7     1      -0.9520980826E-05       4    7    1        -0.5449391142E-03      0.1143259367E-02

    ------------------------------------------------
       NWT REQUIRED            4 OUTER ITERATIONS 
       AND A TOTAL OF          7 INNER ITERATIONS.
    ------------------------------------------------

 NO OUTPUT CONTROL FOR STRESS PERIOD   12   TIME STEP   21
 
 SOLVING FOR HEAD 
                                                   Max.-Head-Change                         Max.-Flux-Residual
  Residual-Control   Outer-Iter.   Inner-Iter.     Column Row Layer    Maximum-Head-Change  Column Row Layer    Maximum-Flux-Residual          L2-NORM 
          0                 1           2             4    7     1       0.3562166978E-01       4    7    1         0.1876879689E+01      0.3945211962E+01
          0                 2           2             4    7     1      -0.3465044731E-02       4    7    1        -0.1876898444E+00      0.3945136650E+00
          0                 3           2             4    7     1       0.2359564305E-03       4    7    1         0.1313827703E-01      0.2761516667E-01
          0                 4           1             4    7     1      -0.9388928547E-05       4    7    1        -0.5373563779E-03      0.1129409865E-02

    ------------------------------------------------
       NWT REQUIRED            4 OUTER ITERATIONS 
       AND A TOTAL OF          7 INNER ITERATIONS.
    ------------------------------------------------

 NO OUTPUT CONTROL FOR STRESS PERIOD   12   TIME STEP   22
 
 SOLVING FOR HEAD 
                                                   Max.-Head-Change                         Max.-Flux-Residual
  Residual-Control   Outer-Iter.   Inner-Iter.     Column Row Layer    Maximum-Head-Change  Column Row Layer    Maximum-Flux-Residual          L2-NORM 
          0                 1           2             4    7     1       0.3512920711E-01       4    7    1         0.1850844650E+01      0.3897780181E+01
          0                 2           2             4    7     1      -0.3417140820E-02       4    7    1        -0.1850862913E+00      0.3897711131E+00
          0                 3           2             4    7     1       0.2326943587E-03       4    7    1         0.1295602870E-01      0.2728324426E-01
          0                 4           1             4    7     1      -0.9259127704E-05       4    7    1        -0.5299024026E-03      0.1115829421E-02

    ------------------------------------------------
       NWT REQUIRED            4 OUTER ITERATIONS 
       AND A TOTAL OF          7 INNER ITERATIONS.
    ------------------------------------------------

 NO OUTPUT CONTROL FOR STRESS PERIOD   12   TIME STEP   23
 
 SOLVING FOR HEAD 
                                                   Max.-Head-Change                         Max.-Flux-Residual
  Residual-Control   Outer-Iter.   Inner-Iter.     Column Row Layer    Maximum-Head-Change  Column Row Layer    Maximum-Flux-Residual          L2-NORM 
          0                 1           2             4    7     1       0.3464541808E-01       4    7    1         0.1825267126E+01      0.3851239928E+01
          0                 2           2             4    7     1      -0.3370080636E-02       4    7    1        -0.1825284910E+00      0.3851176667E+00
          0                 3           2             4    7     1       0.2294897416E-03       4    7    1         0.1277698305E-01      0.2695754959E-01
          0                 4           1             4    7     1      -0.9131613064E-05       4    7    1        -0.5225794234E-03      0.1102535145E-02

    ------------------------------------------------
       NWT REQUIRED            4 OUTER ITERATIONS 
       AND A TOTAL OF          7 INNER ITERATIONS.
    ------------------------------------------------

 NO OUTPUT CONTROL FOR STRESS PERIOD   12   TIME STEP   24
 
 SOLVING FOR HEAD 
                                                   Max.-Head-Change                         Max.-Flux-Residual
  Residual-Control   Outer-Iter.   Inner-Iter.     Column Row Layer    Maximum-Head-Change  Column Row Layer    Maximum-Flux-Residual          L2-NORM 
          0                 1           2             4    7     1       0.3416988478E-01       4    7    1         0.1800124640E+01      0.3805565135E+01
          0                 2           2             4    7     1      -0.3323823528E-02       4    7    1        -0.1800141957E+00      0.3805507053E+00
          0                 3           2             4    7     1       0.2263398107E-03       4    7    1         0.1260098277E-01      0.2663794345E-01
          0                 4           1             4    7     1      -0.9006273876E-05       4    7    1        -0.5153809745E-03      0.1089455530E-02

    ------------------------------------------------
       NWT REQUIRED            4 OUTER ITERATIONS 
       AND A TOTAL OF          7 INNER ITERATIONS.
    ------------------------------------------------

 NO OUTPUT CONTROL FOR STRESS PERIOD   12   TIME STEP   25
 
 SOLVING FOR HEAD 
                                                   Max.-Head-Change                         Max.-Flux-Residual
  Residual-Control   Outer-Iter.   Inner-Iter.     Column Row Layer    Maximum-Head-Change  Column Row Layer    Maximum-Flux-Residual          L2-NORM 
          0                 1           2             4    7     1       0.3370260681E-01       4    7    1         0.1775417531E+01      0.3760746460E+01
          0                 2           2             4    7     1      -0.3278369455E-02       4    7    1        -0.1775434393E+00      0.3760692852E+00
          0                 3           2             4    7     1       0.2232445632E-03       4    7    1         0.1242803017E-01      0.2632425230E-01
          0                 4           1             4    7     1      -0.8883110945E-05       4    7    1        -0.5083072024E-03      0.1076630636E-02

    ------------------------------------------------
       NWT REQUIRED            4 OUTER ITERATIONS 
       AND A TOTAL OF          7 INNER ITERATIONS.
    ------------------------------------------------

 NO OUTPUT CONTROL FOR STRESS PERIOD   12   TIME STEP   26
 
 SOLVING FOR HEAD 
                                                   Max.-Head-Change                         Max.-Flux-Residual
  Residual-Control   Outer-Iter.   Inner-Iter.     Column Row Layer    Maximum-Head-Change  Column Row Layer    Maximum-Flux-Residual          L2-NORM 
          0                 1           2             4    7     1       0.3324343603E-01       4    7    1         0.1751138443E+01      0.3716744157E+01
          0                 2           2             4    7     1      -0.3233704032E-02       4    7    1        -0.1751154862E+00      0.3716695094E+00
          0                 3           2             4    7     1       0.2202030188E-03       4    7    1         0.1225807380E-01      0.2601633371E-01
          0                 4           1             4    7     1      -0.8762085358E-05       4    7    1        -0.5013559944E-03      0.1064039425E-02

    ------------------------------------------------
       NWT REQUIRED            4 OUTER ITERATIONS 
       AND A TOTAL OF          7 INNER ITERATIONS.
    ------------------------------------------------

 NO OUTPUT CONTROL FOR STRESS PERIOD   12   TIME STEP   27
 
 SOLVING FOR HEAD 
                                                   Max.-Head-Change                         Max.-Flux-Residual
  Residual-Control   Outer-Iter.   Inner-Iter.     Column Row Layer    Maximum-Head-Change  Column Row Layer    Maximum-Flux-Residual          L2-NORM 
          0                 1           2             4    7     1       0.3279222894E-01       4    7    1         0.1727279694E+01      0.3673543757E+01
          0                 2           2             4    7     1      -0.3189813364E-02       4    7    1        -0.1727295681E+00      0.3673499521E+00
          0                 3           2             4    7     1       0.2172142329E-03       4    7    1         0.1209105986E-01      0.2571399215E-01
          0                 4           1             4    7     1      -0.8643158892E-05       4    7    1        -0.4945251055E-03      0.1051674666E-02

    ------------------------------------------------
       NWT REQUIRED            4 OUTER ITERATIONS 
       AND A TOTAL OF          7 INNER ITERATIONS.
    ------------------------------------------------

 NO OUTPUT CONTROL FOR STRESS PERIOD   12   TIME STEP   28
 
 SOLVING FOR HEAD 
                                                   Max.-Head-Change                         Max.-Flux-Residual
  Residual-Control   Outer-Iter.   Inner-Iter.     Column Row Layer    Maximum-Head-Change  Column Row Layer    Maximum-Flux-Residual          L2-NORM 
          0                 1           2             4    7     1       0.3234884346E-01       4    7    1         0.1703833840E+01      0.3631123853E+01
          0                 2           2             4    7     1      -0.3146683425E-02       4    7    1        -0.1703849406E+00      0.3631082985E+00
          0                 3           2             4    7     1       0.2142772503E-03       4    7    1         0.1192693626E-01      0.2541712694E-01
          0                 4           1             4    7     1      -0.8526293440E-05       4    7    1        -0.4878124475E-03      0.1039540302E-02

    ------------------------------------------------
       NWT REQUIRED            4 OUTER ITERATIONS 
       AND A TOTAL OF          7 INNER ITERATIONS.
    ------------------------------------------------

 NO OUTPUT CONTROL FOR STRESS PERIOD   12   TIME STEP   29
 
 SOLVING FOR HEAD 
                                                   Max.-Head-Change                         Max.-Flux-Residual
  Residual-Control   Outer-Iter.   Inner-Iter.     Column Row Layer    Maximum-Head-Change  Column Row Layer    Maximum-Flux-Residual          L2-NORM 
          0                 1           2             4    7     1       0.3191326604E-01       4    7    1         0.1680800864E+01      0.3590526249E+01
          0                 2           2             4    7     1      -0.3104313013E-02       4    7    1        -0.1680816021E+00      0.3590459779E+00
          0                 3           2             4    7     1       0.2113919883E-03       4    7    1         0.1176570290E-01      0.2513249401E-01
          0                 4           1             4    7     1      -0.8411486125E-05       4    7    1        -0.4812179864E-03      0.1027844881E-02

    ------------------------------------------------
       NWT REQUIRED            4 OUTER ITERATIONS 
       AND A TOTAL OF          7 INNER ITERATIONS.
    ------------------------------------------------

 NO OUTPUT CONTROL FOR STRESS PERIOD   12   TIME STEP   30



 STREAM LISTING     PERIOD     12   STEP       30

 LAYER ROW COL. STREAM  RCH.  FLOW INTO     FLOW TO   FLOW OUT OF   OVRLND.     DIRECT     STREAM       STREAM     STREAM     STREAM   STREAMBED  STREAMBED
                SEG.NO.  NO.  STRM. RCH.    AQUIFER    STRM. RCH.    RUNOFF     PRECIP       ET          HEAD       DEPTH      WIDTH   CONDCTNC.   GRADIENT

   1    1    1     1     1    2.5441E+01  2.4717E-01   2.5194E+01  0.000E+00  0.000E+00  0.000E+00  1.09423E+03  1.185E+00  1.313E+01  5.906E-02  1.395E+00
   1    2    2     1     2    2.5194E+01  3.8224E-01   2.4811E+01  0.000E+00  0.000E+00  0.000E+00  1.08924E+03  1.180E+00  1.306E+01  9.144E-02  1.393E+00
   1    3    3     1     3    2.4811E+01  3.2545E-01   2.4486E+01  0.000E+00  0.000E+00  0.000E+00  1.08359E+03  1.175E+00  1.299E+01  7.795E-02  1.392E+00
   1    3    4     1     4    2.4486E+01  2.9925E-01   2.4187E+01  0.000E+00  0.000E+00  0.000E+00  1.07858E+03  1.170E+00  1.293E+01  7.176E-02  1.390E+00
   1    4    5     2     1    2.2187E+01  3.2130E-01   2.1865E+01  0.000E+00  0.000E+00  0.000E+00  1.07305E+03  1.119E+00  1.200E+01  7.800E-02  1.373E+00
   1    5    6     2     2    2.1865E+01  2.4663E-01   2.1619E+01  0.000E+00  0.000E+00  0.000E+00  1.06762E+03  1.111E+00  1.200E+01  6.000E-02  1.370E+00
   1    6    6     2     3    2.1619E+01  2.4618E-01   2.1373E+01  0.000E+00  0.000E+00  0.000E+00  1.06290E+03  1.103E+00  1.200E+01  6.000E-02  1.368E+00
   1    7    6     2     4    2.1373E+01  2.4572E-01   2.1127E+01  0.000E+00  0.000E+00  0.000E+00  1.05817E+03  1.095E+00  1.200E+01  6.000E-02  1.365E+00
   1    8    6     2     5    2.1127E+01  2.4527E-01   2.0882E+01  0.000E+00  0.000E+00  0.000E+00  1.05345E+03  1.088E+00  1.200E+01  6.000E-02  1.363E+00
   1    3    5     3     1    2.0000E+00  2.8252E-01   1.7175E+00  0.000E+00  0.000E+00  0.000E+00  1.07555E+03  1.909E+00  9.636E+00  7.227E-02  1.955E+00
   1    3    6     3     2    1.7175E+00  2.4905E-01   1.4684E+00  0.000E+00  0.000E+00  0.000E+00  1.07264E+03  1.727E+00  8.909E+00  6.682E-02  1.864E+00
   1    3    7     3     3    1.4684E+00  1.9718E-01   1.2712E+00  0.000E+00  0.000E+00  0.000E+00  1.06987E+03  1.555E+00  8.218E+00  5.547E-02  1.777E+00
   1    4    8     3     4    1.2712E+00  2.2567E-01   1.0456E+00  0.000E+00  0.000E+00  0.000E+00  1.06682E+03  1.364E+00  7.455E+00  6.709E-02  1.682E+00
   1    5    8     3     5    1.0456E+00  1.5790E-01   8.8768E-01  0.000E+00  0.000E+00  0.000E+00  1.06362E+03  1.164E+00  6.655E+00  4.991E-02  1.582E+00
   1    6    8     3     6    8.8768E-01  5.5980E-02   8.3170E-01  0.000E+00  0.000E+00  0.000E+00  1.06158E+03  1.036E+00  6.145E+00  1.844E-02  1.518E+00
   1    5   10     4     1    1.0000E+01  9.0919E-02   9.9091E+00  0.000E+00  0.000E+00  0.000E+00  1.07836E+03  6.368E-01  1.000E+01  2.500E-02  1.212E+00
   1    5    9     4     2    9.9091E+00  1.8158E-01   9.7275E+00  0.000E+00  0.000E+00  0.000E+00  1.07154E+03  6.315E-01  1.000E+01  5.000E-02  1.211E+00
   1    6    8     4     3    9.7275E+00  1.2689E-01   9.6006E+00  0.000E+00  0.000E+00  0.000E+00  1.06381E+03  6.256E-01  1.000E+01  3.500E-02  1.209E+00
   1    6    8     5     1    1.0432E+01  2.2686E-01   1.0205E+01  0.000E+00  0.000E+00  0.000E+00  1.05868E+03  6.790E-01  1.542E+01  6.166E-02  1.226E+00
   1    7    7     5     2    1.0205E+01  2.7894E-01   9.9265E+00  0.000E+00  0.000E+00  0.000E+00  1.05417E+03  6.732E-01  1.519E+01  7.594E-02  1.224E+00
   1    8    7     5     3    9.9265E+00  1.9221E-01   9.7343E+00  0.000E+00  0.000E+00  0.000E+00  1.04992E+03  6.676E-01  1.497E+01  5.241E-02  1.223E+00
   1    8    6     5     4    9.7343E+00  1.3577E-01   9.5985E+00  0.000E+00  0.000E+00  0.000E+00  1.04691E+03  6.637E-01  1.482E+01  3.706E-02  1.221E+00
   1    9    6     6     1    3.0480E+01  2.6230E-01   3.0218E+01  0.000E+00  0.000E+00  0.000E+00  1.04410E+03  1.372E+00  1.200E+01  6.000E-02  1.457E+00
   1   10    7     6     2    3.0218E+01  2.6187E-01   2.9956E+01  0.000E+00  0.000E+00  0.000E+00  1.03955E+03  1.365E+00  1.200E+01  6.000E-02  1.455E+00
   1   11    7     6     3    2.9956E+01  2.6145E-01   2.9695E+01  0.000E+00  0.000E+00  0.000E+00  1.03499E+03  1.357E+00  1.200E+01  6.000E-02  1.452E+00
   1   12    7     6     4    2.9695E+01  2.6102E-01   2.9434E+01  0.000E+00  0.000E+00  0.000E+00  1.03044E+03  1.350E+00  1.200E+01  6.000E-02  1.450E+00
   1   13    7     6     5    2.9434E+01  1.2657E-03   2.9432E+01  0.000E+00  0.000E+00  0.000E+00  1.02726E+03  1.347E+00  1.200E+01  2.400E-02  1.758E-02
   1   14    9     7     1    1.5000E+02  1.3299E+00   1.4867E+02  0.000E+00  0.000E+00  0.000E+00  1.03987E+03  2.288E+00  5.529E+01  5.593E-01  7.926E-01
   1   13    8     7     2    1.4867E+02  1.7963E+00   1.4687E+02  0.000E+00  0.000E+00  0.000E+00  1.03478E+03  2.279E+00  5.526E+01  6.148E-01  9.739E-01
   1   13    7     7     3    1.4687E+02  1.3890E+00   1.4548E+02  0.000E+00  0.000E+00  0.000E+00  1.02969E+03  2.271E+00  5.522E+01  5.585E-01  8.291E-01
   1   13    6     8     1    1.7492E+02  8.6273E-01   1.7405E+02  0.000E+00  0.000E+00  0.000E+00  1.02486E+03  2.981E+00  4.323E+01  4.405E-01  6.528E-01
   1   13    5     8     2    1.7405E+02  1.2009E-01   1.7393E+02  0.000E+00  0.000E+00  0.000E+00  1.01860E+03  2.978E+00  4.318E+01  4.400E-01  9.097E-02
   1   13    4     8     3    1.7393E+02 -2.6229E+00   1.7656E+02  0.000E+00  0.000E+00  0.000E+00  1.01236E+03  2.986E+00  4.330E+01  4.412E+00 -1.982E-01
   1   13    3     8     4    1.7656E+02 -3.7649E+00   1.8032E+02  0.000E+00  0.000E+00  0.000E+00  1.00613E+03  3.006E+00  4.359E+01  4.442E+00 -2.825E-01
   1   13    2     8     5    1.8032E+02 -2.6300E+00   1.8295E+02  0.000E+00  0.000E+00  0.000E+00  9.99901E+02  3.026E+00  4.388E+01  4.472E+00 -1.960E-01
   1   13    1     8     6    1.8295E+02 -2.0230E+00   1.8498E+02  0.000E+00  0.000E+00  0.000E+00  9.94916E+02  3.041E+00  4.409E+01  2.696E+00 -2.501E-01





UNSATURATED ZONE PACKAGE VOLUMETRIC BUDGET FOR  TIME STEP    30 STRESS PERIOD   12
  ------------------------------------------------------------------------------



     CUMULATIVE VOLUMES      L**3       RATES FOR THIS TIME STEP      L**3/T
     ------------------                 ------------------------

           IN:                                      IN:
           ---                                      ---
        INFILTRATION =   525859977.5872          INFILTRATION =           4.4075

          OUT:                                     OUT:
          ----                                     ----
              UZF ET =   496182955.6122                UZF ET =           0.7250
        UZF RECHARGE =       73224.0000          UZF RECHARGE =       0.0000E+00

            IN - OUT =    29603797.9750              IN - OUT =           3.6825

          STORAGE:                                 STORAGE:
          --------                                 --------
      STORAGE CHANGE =    29603786.8829        STORAGE CHANGE =           3.6825

 PERCENT DISCREPANCY IS DIFFERENCE BETWEEN IN-OUT MINUS CHANGE IN STORAGE
 DIVIDED BY THE AVERAGE OF IN AND OUT TIMES 100

 PERCENT DISCREPANCY =           0.00     PERCENT DISCREPANCY =           0.00






1
  VOLUMETRIC BUDGET FOR AGRICULTURAL FIELDS AT TIME STEP   30, STRESS PERIOD  12
  ------------------------------------------------------------------------------

     CUMULATIVE VOLUMES      L**3       RATES FOR THIS TIME STEP      L**3/T
     ------------------                 ------------------------

           IN:                                      IN:
           ---                                      ---
               AG WELLS  =   398277792.0000                 AG WELLS  =           0.0000
      DIVERSION SEGMENTS =           0.0000        DIVERSION SEGMENTS =           0.0000
           GW IRRIGATION =           0.0000             GW IRRIGATION =           0.0000
           SW IRRIGATION =           0.0000             SW IRRIGATION =           0.0000
        SYSTEM LOSSES GW =           0.0000          SYSTEM LOSSES GW =           0.0000
        SYSTEM LOSSES SW =           0.0000          SYSTEM LOSSES SW =           0.0000

                TOTAL IN =   398277792.0000                  TOTAL IN =           0.0000

          OUT:                                     OUT:
          ----                                     ----
               AG WELLS  =           0.0000                 AG WELLS  =           0.0000
      DIVERSION SEGMENTS =           0.0000        DIVERSION SEGMENTS =           0.0000
           GW IRRIGATION =   398277792.0000             GW IRRIGATION =           0.0000
           SW IRRIGATION =           0.0000             SW IRRIGATION =           0.0000
        SYSTEM LOSSES GW =           0.0000          SYSTEM LOSSES GW =           0.0000
        SYSTEM LOSSES SW =           0.0000          SYSTEM LOSSES SW =           0.0000

               TOTAL OUT =   398277792.0000                 TOTAL OUT =           0.0000

                IN - OUT =           0.0000                  IN - OUT =           0.0000

     PERCENT DISCREPANCY =           0.00         PERCENT DISCREPANCY =           0.00



1
  VOLUMETRIC BUDGET FOR ENTIRE MODEL AT END OF TIME STEP   30, STRESS PERIOD  12
  ------------------------------------------------------------------------------

     CUMULATIVE VOLUMES      L**3       RATES FOR THIS TIME STEP      L**3/T
     ------------------                 ------------------------

           IN:                                      IN:
           ---                                      ---
             STORAGE     =   504196064.0000               STORAGE     =           9.8630
       CONSTANT HEAD     =           0.0000         CONSTANT HEAD     =           0.0000
     HEAD DEP BOUNDS     =     8282450.0000       HEAD DEP BOUNDS     =           0.2854
      STREAM LEAKAGE     =   364386208.0000        STREAM LEAKAGE     =          11.5066
        UZF RECHARGE     =       73223.9531          UZF RECHARGE     =           0.0000
               GW ET     =           0.0000                 GW ET     =           0.0000
     SURFACE LEAKAGE     =           0.0000       SURFACE LEAKAGE     =           0.0000
           AG WELLS      =           0.0000             AG WELLS      =           0.0000

                TOTAL IN =   876937984.0000                  TOTAL IN =          21.6550

          OUT:                                     OUT:
          ----                                     ----
             STORAGE     =   156591744.0000               STORAGE     =          10.3228
       CONSTANT HEAD     =           0.0000         CONSTANT HEAD     =           0.0000
     HEAD DEP BOUNDS     =     8560229.0000       HEAD DEP BOUNDS     =           0.2913
      STREAM LEAKAGE     =   299917632.0000        STREAM LEAKAGE     =          11.0408
        UZF RECHARGE     =           0.0000          UZF RECHARGE     =           0.0000
               GW ET     =    13594306.0000                 GW ET     =           0.0000
     SURFACE LEAKAGE     =           0.0000       SURFACE LEAKAGE     =           0.0000
           AG WELLS      =   398277792.0000             AG WELLS      =           0.0000

               TOTAL OUT =   876941696.0000                 TOTAL OUT =          21.6550

                IN - OUT =       -3712.0000                  IN - OUT =       3.8147E-06

     PERCENT DISCREPANCY =          -0.00         PERCENT DISCREPANCY =           0.00






         TIME SUMMARY AT END OF TIME STEP   30 IN STRESS PERIOD   12
                    SECONDS     MINUTES      HOURS       DAYS        YEARS
                    -----------------------------------------------------------
   TIME STEP LENGTH  87667.      1461.1      24.352      1.0147     2.77799E-03
 STRESS PERIOD TIME 2.63000E+06  43833.      730.56      30.440     8.33397E-02
         TOTAL TIME 2.90163E+07 4.83606E+05  8060.1      335.84     0.91947    
1
1
                            STRESS PERIOD NO.   13, LENGTH =   2630000.    
                            -----------------------------------------------

                              NUMBER OF TIME STEPS =    30

                               MULTIPLIER FOR DELT =     1.000

                            INITIAL TIME STEP SIZE =   87666.66    

 REUSING NON-PARAMETER GHB CELLS FROM LAST STRESS PERIOD

      2 GHB CELLS

 REUSING STREAM SEGMENT DATA FROM LAST STRESS PERIOD



            AREAL INFILTRATION RATE
 READING ON UNIT   19 WITH FORMAT: (10F4.0)            

            1           2           3           4           5           6           7           8           9          10
 ........................................................................................................................
   1   1.2000E-09   0.000       0.000       0.000       0.000       0.000       0.000       0.000       0.000       0.000    
   2   2.1000E-09  2.0000E-09  8.0000E-10  8.5000E-09   0.000       0.000       0.000       0.000       0.000       0.000    
   3   5.0000E-10  1.1000E-09  8.8000E-09  5.5000E-09   0.000       0.000       0.000       0.000       0.000       0.000    
   4   8.5000E-09  1.1000E-09  1.1000E-09  1.1000E-09  2.0000E-09   0.000       0.000       0.000       0.000       0.000    
   5   8.5000E-09  1.1000E-09  1.1000E-09  1.1000E-09  1.1000E-09   0.000       0.000       0.000       0.000       0.000    
   6   8.5000E-09  5.2000E-09  2.1000E-09  1.1000E-09  1.5000E-09   0.000       0.000       0.000       0.000       0.000    
   7   8.5000E-09  5.2000E-09  2.1000E-09  1.2000E-09  2.0000E-09   0.000       0.000       0.000       0.000       0.000    
   8   5.0000E-10  5.2000E-09  2.1000E-09  1.2000E-09  5.0000E-09   0.000       0.000       0.000       0.000       0.000    
   9   5.0000E-10  5.2000E-09  2.1000E-09  1.2000E-09  5.0000E-09   0.000       0.000       0.000       0.000       0.000    
  10   5.0000E-10  5.2000E-09  2.1000E-09  1.2000E-09  5.8000E-09   0.000       0.000       0.000       0.000       0.000    
  11   1.0000E-10  1.1000E-09  1.1000E-09  1.2000E-09  5.0000E-09   0.000       0.000       0.000       0.000       0.000    
  12   1.1000E-09  1.1000E-09  1.1000E-09  1.1000E-09  2.0000E-09   0.000       0.000       0.000       0.000       0.000    
  13   1.1000E-09  2.2000E-09  2.2000E-09  2.1000E-09  1.0000E-09   0.000       0.000       0.000       0.000       0.000    
  14   2.0000E-10  5.5000E-09  5.5000E-09  5.2000E-09  1.0000E-09   0.000       0.000       0.000       0.000       0.000    
  15    0.000      8.8000E-09  8.8000E-09   0.000       0.000       0.000       0.000       0.000       0.000       0.000    

                  ET RATE =  5.000000E-10

 USING ET EXTINCTION DEPTH FROM PREVIOUS STRESS PERIOD. CURRENT PERIOD IS:      13

 USING EXTINCTION WATER CONTENT FROM PREVIOUS STRESS PERIOD. CURRENT PERIOD IS:      13

 USING AIR ENTRY PRESSURE FROM PREVIOUS STRESS PERIOD. CURRENT PERIOD IS:      13

 USING ROOT PRESSURE HEAD FROM PREVIOUS STRESS PERIOD. CURRENT PERIOD IS:      13

 USING ROOT ACTIVITY FROM PREVIOUS STRESS PERIOD. CURRENT PERIOD IS:      13

 PROCESSING AG STRESS PERIOD DATA

 READING AG STRESS PERIOD DATA

 READING IRRIGATION WELL

 END PROCESSING AG STRESS PERIOD DATA OPTIONS
 
 SOLVING FOR HEAD 
                                                   Max.-Head-Change                         Max.-Flux-Residual
  Residual-Control   Outer-Iter.   Inner-Iter.     Column Row Layer    Maximum-Head-Change  Column Row Layer    Maximum-Flux-Residual          L2-NORM 
          0                 1           2             4    7     1       0.3148519159E-01       4    7    1         0.1658165382E+01      0.3555728451E+01
          0                 2           2             4    7     1      -0.3062672453E-02       4    7    1        -0.1658180141E+00      0.3555266517E+00
          0                 3           2             4    7     1       0.2085564260E-03       4    7    1         0.1160725203E-01      0.2488445320E-01
          0                 4           1             4    7     1      -0.8298656356E-05       4    7    1        -0.4747373257E-03      0.1017599894E-02

    ------------------------------------------------
       NWT REQUIRED            4 OUTER ITERATIONS 
       AND A TOTAL OF          7 INNER ITERATIONS.
    ------------------------------------------------

 NO OUTPUT CONTROL FOR STRESS PERIOD   13   TIME STEP    1
 
 SOLVING FOR HEAD 
                                                   Max.-Head-Change                         Max.-Flux-Residual
  Residual-Control   Outer-Iter.   Inner-Iter.     Column Row Layer    Maximum-Head-Change  Column Row Layer    Maximum-Flux-Residual          L2-NORM 
          0                 1           2             4    7     1       0.3106461590E-01       4    7    1         0.1635926251E+01      0.3515132123E+01
          0                 2           2             4    7     1      -0.3021761334E-02       4    7    1        -0.1635940624E+00      0.3514901531E+00
          0                 3           2             4    7     1       0.2057705363E-03       4    7    1         0.1145157572E-01      0.2460211456E-01
          0                 4           1             4    7     1      -0.8187803214E-05       4    7    1        -0.4683701611E-03      0.1006091035E-02

    ------------------------------------------------
       NWT REQUIRED            4 OUTER ITERATIONS 
       AND A TOTAL OF          7 INNER ITERATIONS.
    ------------------------------------------------

 NO OUTPUT CONTROL FOR STRESS PERIOD   13   TIME STEP    2
 
 SOLVING FOR HEAD 
                                                   Max.-Head-Change                         Max.-Flux-Residual
  Residual-Control   Outer-Iter.   Inner-Iter.     Column Row Layer    Maximum-Head-Change  Column Row Layer    Maximum-Flux-Residual          L2-NORM 
          0                 1           2             4    7     1       0.3065139639E-01       4    7    1         0.1614075917E+01      0.3475265359E+01
          0                 2           2             4    7     1      -0.2981565786E-02       4    7    1        -0.1614089912E+00      0.3475057646E+00
          0                 3           2             4    7     1       0.2030333739E-03       4    7    1         0.1129862103E-01      0.2432340596E-01
          0                 4           1             4    7     1      -0.8078888704E-05       4    7    1        -0.4621142953E-03      0.9947296703E-03

    ------------------------------------------------
       NWT REQUIRED            4 OUTER ITERATIONS 
       AND A TOTAL OF          7 INNER ITERATIONS.
    ------------------------------------------------

 NO OUTPUT CONTROL FOR STRESS PERIOD   13   TIME STEP    3
 
 SOLVING FOR HEAD 
                                                   Max.-Head-Change                         Max.-Flux-Residual
  Residual-Control   Outer-Iter.   Inner-Iter.     Column Row Layer    Maximum-Head-Change  Column Row Layer    Maximum-Flux-Residual          L2-NORM 
          0                 1           2             4    7     1       0.3024538818E-01       4    7    1         0.1592606985E+01      0.3436131166E+01
          0                 2           2             4    7     1      -0.2942071715E-02       4    7    1        -0.1592620614E+00      0.3435945914E+00
          0                 3           2             4    7     1       0.2003439792E-03       4    7    1         0.1114833621E-01      0.2404995755E-01
          0                 4           1             4    7     1      -0.7971875182E-05       4    7    1        -0.4559676356E-03      0.9835416149E-03

    ------------------------------------------------
       NWT REQUIRED            4 OUTER ITERATIONS 
       AND A TOTAL OF          7 INNER ITERATIONS.
    ------------------------------------------------

 NO OUTPUT CONTROL FOR STRESS PERIOD   13   TIME STEP    4
 
 SOLVING FOR HEAD 
                                                   Max.-Head-Change                         Max.-Flux-Residual
  Residual-Control   Outer-Iter.   Inner-Iter.     Column Row Layer    Maximum-Head-Change  Column Row Layer    Maximum-Flux-Residual          L2-NORM 
          0                 1           2             4    7     1       0.2984631551E-01       4    7    1         0.1571504603E+01      0.3397701007E+01
          0                 2           2             4    7     1      -0.2903252299E-02       4    7    1        -0.1571517876E+00      0.3397533022E+00
          0                 3           2             4    7     1       0.1977005261E-03       4    7    1         0.1100061732E-01      0.2378109767E-01
          0                 4           1             4    7     1      -0.7866689771E-05       4    7    1        -0.4499259294E-03      0.9725001455E-03

    ------------------------------------------------
       NWT REQUIRED            4 OUTER ITERATIONS 
       AND A TOTAL OF          7 INNER ITERATIONS.
    ------------------------------------------------

 NO OUTPUT CONTROL FOR STRESS PERIOD   13   TIME STEP    5
 
 SOLVING FOR HEAD 
                                                   Max.-Head-Change                         Max.-Flux-Residual
  Residual-Control   Outer-Iter.   Inner-Iter.     Column Row Layer    Maximum-Head-Change  Column Row Layer    Maximum-Flux-Residual          L2-NORM 
          0                 1           2             4    7     1       0.2945431492E-01       4    7    1         0.1550776498E+01      0.3359966824E+01
          0                 2           2             4    7     1      -0.2865120818E-02       4    7    1        -0.1550789424E+00      0.3359815044E+00
          0                 3           2             4    7     1       0.1951039185E-03       4    7    1         0.1085551842E-01      0.2351725883E-01
          0                 4           1             4    7     1      -0.7763368276E-05       4    7    1        -0.4439913710E-03      0.9617945795E-03

    ------------------------------------------------
       NWT REQUIRED            4 OUTER ITERATIONS 
       AND A TOTAL OF          7 INNER ITERATIONS.
    ------------------------------------------------

 NO OUTPUT CONTROL FOR STRESS PERIOD   13   TIME STEP    6
 
 SOLVING FOR HEAD 
                                                   Max.-Head-Change                         Max.-Flux-Residual
  Residual-Control   Outer-Iter.   Inner-Iter.     Column Row Layer    Maximum-Head-Change  Column Row Layer    Maximum-Flux-Residual          L2-NORM 
          0                 1           2             4    7     1       0.2906896770E-01       4    7    1         0.1530400382E+01      0.3322887398E+01
          0                 2           2             4    7     1      -0.2827636542E-02       4    7    1        -0.1530412971E+00      0.3322749057E+00
          0                 3           2             4    7     1       0.1925513833E-03       4    7    1         0.1071288350E-01      0.2325786767E-01
          0                 4           1             4    7     1      -0.7661800519E-05       4    7    1        -0.4381576023E-03      0.9511330842E-03

    ------------------------------------------------
       NWT REQUIRED            4 OUTER ITERATIONS 
       AND A TOTAL OF          7 INNER ITERATIONS.
    ------------------------------------------------

 NO OUTPUT CONTROL FOR STRESS PERIOD   13   TIME STEP    7
 
 SOLVING FOR HEAD 
                                                   Max.-Head-Change                         Max.-Flux-Residual
  Residual-Control   Outer-Iter.   Inner-Iter.     Column Row Layer    Maximum-Head-Change  Column Row Layer    Maximum-Flux-Residual          L2-NORM 
          0                 1           2             4    7     1       0.2869041901E-01       4    7    1         0.1510383914E+01      0.3286474993E+01
          0                 2           2             4    7     1      -0.2790813592E-02       4    7    1        -0.1510396175E+00      0.3286350012E+00
          0                 3           2             4    7     1       0.1900438822E-03       4    7    1         0.1057276621E-01      0.2300330201E-01
          0                 4           1             4    7     1      -0.7562025185E-05       4    7    1        -0.4324268064E-03      0.9408098549E-03

    ------------------------------------------------
       NWT REQUIRED            4 OUTER ITERATIONS 
       AND A TOTAL OF          7 INNER ITERATIONS.
    ------------------------------------------------

 NO OUTPUT CONTROL FOR STRESS PERIOD   13   TIME STEP    8
 
 SOLVING FOR HEAD 
                                                   Max.-Head-Change                         Max.-Flux-Residual
  Residual-Control   Outer-Iter.   Inner-Iter.     Column Row Layer    Maximum-Head-Change  Column Row Layer    Maximum-Flux-Residual          L2-NORM 
          0                 1           2             4    7     1       0.2831852459E-01       4    7    1         0.1490719937E+01      0.3250680826E+01
          0                 2           2             4    7     1      -0.2754637934E-02       4    7    1        -0.1490731879E+00      0.3250567056E+00
          0                 3           2             4    7     1       0.1875804582E-03       4    7    1         0.1043511636E-01      0.2275282867E-01
          0                 4           1             4    7     1      -0.7464003013E-05       4    7    1        -0.4267969102E-03      0.9305470669E-03

    ------------------------------------------------
       NWT REQUIRED            4 OUTER ITERATIONS 
       AND A TOTAL OF          7 INNER ITERATIONS.
    ------------------------------------------------

 NO OUTPUT CONTROL FOR STRESS PERIOD   13   TIME STEP    9
 
 SOLVING FOR HEAD 
                                                   Max.-Head-Change                         Max.-Flux-Residual
  Residual-Control   Outer-Iter.   Inner-Iter.     Column Row Layer    Maximum-Head-Change  Column Row Layer    Maximum-Flux-Residual          L2-NORM 
          0                 1           2             4    7     1       0.2795287456E-01       4    7    1         0.1471386285E+01      0.3215507121E+01
          0                 2           2             4    7     1      -0.2719069698E-02       4    7    1        -0.1471397917E+00      0.3215402652E+00
          0                 3           2             4    7     1       0.1851583976E-03       4    7    1         0.1029977887E-01      0.2250679131E-01
          0                 4           1             4    7     1      -0.7367626475E-05       4    7    1        -0.4212615870E-03      0.9204752840E-03

    ------------------------------------------------
       NWT REQUIRED            4 OUTER ITERATIONS 
       AND A TOTAL OF          7 INNER ITERATIONS.
    ------------------------------------------------

 NO OUTPUT CONTROL FOR STRESS PERIOD   13   TIME STEP   10
 
 SOLVING FOR HEAD 
                                                   Max.-Head-Change                         Max.-Flux-Residual
  Residual-Control   Outer-Iter.   Inner-Iter.     Column Row Layer    Maximum-Head-Change  Column Row Layer    Maximum-Flux-Residual          L2-NORM 
          0                 1           2             4    7     1       0.2759375261E-01       4    7    1         0.1452398423E+01      0.3180934026E+01
          0                 2           2             4    7     1      -0.2684136480E-02       4    7    1        -0.1452409753E+00      0.3180838283E+00
          0                 3           2             4    7     1       0.1827795795E-03       4    7    1         0.1016686195E-01      0.2226493959E-01
          0                 4           1             4    7     1      -0.7272971670E-05       4    7    1        -0.4158252887E-03      0.9105786858E-03

    ------------------------------------------------
       NWT REQUIRED            4 OUTER ITERATIONS 
       AND A TOTAL OF          7 INNER ITERATIONS.
    ------------------------------------------------

 NO OUTPUT CONTROL FOR STRESS PERIOD   13   TIME STEP   11
 
 SOLVING FOR HEAD 
                                                   Max.-Head-Change                         Max.-Flux-Residual
  Residual-Control   Outer-Iter.   Inner-Iter.     Column Row Layer    Maximum-Head-Change  Column Row Layer    Maximum-Flux-Residual          L2-NORM 
          0                 1           2             4    7     1       0.2724074753E-01       4    7    1         0.1433734341E+01      0.3146944140E+01
          0                 2           2             4    7     1      -0.2649798277E-02       4    7    1        -0.1433745379E+00      0.3146856364E+00
          0                 3           2             4    7     1       0.1804412797E-03       4    7    1         0.1003621155E-01      0.2202714620E-01
          0                 4           1             4    7     1      -0.7179928537E-05       4    7    1        -0.4104816915E-03      0.9008727690E-03

    ------------------------------------------------
       NWT REQUIRED            4 OUTER ITERATIONS 
       AND A TOTAL OF          7 INNER ITERATIONS.
    ------------------------------------------------

 NO OUTPUT CONTROL FOR STRESS PERIOD   13   TIME STEP   12
 
 SOLVING FOR HEAD 
                                                   Max.-Head-Change                         Max.-Flux-Residual
  Residual-Control   Outer-Iter.   Inner-Iter.     Column Row Layer    Maximum-Head-Change  Column Row Layer    Maximum-Flux-Residual          L2-NORM 
          0                 1           2             4    7     1       0.2689373776E-01       4    7    1         0.1415387407E+01      0.3113515325E+01
          0                 2           2             4    7     1      -0.2616043267E-02       4    7    1        -0.1415398159E+00      0.3113434077E+00
          0                 3           2             4    7     1       0.1781426923E-03       4    7    1         0.9907781225E-02      0.2179322037E-01
          0                 4           1             4    7     1      -0.7088465070E-05       4    7    1        -0.4052288596E-03      0.8914866174E-03

    ------------------------------------------------
       NWT REQUIRED            4 OUTER ITERATIONS 
       AND A TOTAL OF          7 INNER ITERATIONS.
    ------------------------------------------------

 NO OUTPUT CONTROL FOR STRESS PERIOD   13   TIME STEP   13
 
 SOLVING FOR HEAD 
                                                   Max.-Head-Change                         Max.-Flux-Residual
  Residual-Control   Outer-Iter.   Inner-Iter.     Column Row Layer    Maximum-Head-Change  Column Row Layer    Maximum-Flux-Residual          L2-NORM 
          0                 1           2             4    7     1       0.2655286554E-01       4    7    1         0.1397366007E+01      0.3080648767E+01
          0                 2           2             4    7     1      -0.2582885285E-02       4    7    1        -0.1397376483E+00      0.3080570750E+00
          0                 3           2             4    7     1       0.1758847610E-03       4    7    1         0.9781629698E-02      0.2156331027E-01
          0                 4           1             4    7     1      -0.6998620296E-05       4    7    1        -0.4000692707E-03      0.8819093156E-03

    ------------------------------------------------
       NWT REQUIRED            4 OUTER ITERATIONS 
       AND A TOTAL OF          7 INNER ITERATIONS.
    ------------------------------------------------

 NO OUTPUT CONTROL FOR STRESS PERIOD   13   TIME STEP   14
 
 SOLVING FOR HEAD 
                                                   Max.-Head-Change                         Max.-Flux-Residual
  Residual-Control   Outer-Iter.   Inner-Iter.     Column Row Layer    Maximum-Head-Change  Column Row Layer    Maximum-Flux-Residual          L2-NORM 
          0                 1           2             4    7     1       0.2621786564E-01       4    7    1         0.1379655484E+01      0.3048324421E+01
          0                 2           2             4    7     1      -0.2550298532E-02       4    7    1        -0.1379665691E+00      0.3048222619E+00
          0                 3           2             4    7     1       0.1736657277E-03       4    7    1         0.9657654350E-02      0.2133687862E-01
          0                 4           1             4    7     1      -0.6910322723E-05       4    7    1        -0.3949986619E-03      0.8726415147E-03

    ------------------------------------------------
       NWT REQUIRED            4 OUTER ITERATIONS 
       AND A TOTAL OF          7 INNER ITERATIONS.
    ------------------------------------------------

 NO OUTPUT CONTROL FOR STRESS PERIOD   13   TIME STEP   15
 
 SOLVING FOR HEAD 
                                                   Max.-Head-Change                         Max.-Flux-Residual
  Residual-Control   Outer-Iter.   Inner-Iter.     Column Row Layer    Maximum-Head-Change  Column Row Layer    Maximum-Flux-Residual          L2-NORM 
          0                 1           2             4    7     1       0.2588847563E-01       4    7    1         0.1362242084E+01      0.3016524402E+01
          0                 2           2             4    7     1      -0.2518257479E-02       4    7    1        -0.1362252029E+00      0.3016461655E+00
          0                 3           2             4    7     1       0.1714838543E-03       4    7    1         0.9535758905E-02      0.2111459791E-01
          0                 4           1             4    7     1      -0.6823503733E-05       4    7    1        -0.3900131217E-03      0.8635718286E-03

    ------------------------------------------------
       NWT REQUIRED            4 OUTER ITERATIONS 
       AND A TOTAL OF          7 INNER ITERATIONS.
    ------------------------------------------------

 NO OUTPUT CONTROL FOR STRESS PERIOD   13   TIME STEP   16
 
 SOLVING FOR HEAD 
                                                   Max.-Head-Change                         Max.-Flux-Residual
  Residual-Control   Outer-Iter.   Inner-Iter.     Column Row Layer    Maximum-Head-Change  Column Row Layer    Maximum-Flux-Residual          L2-NORM 
          0                 1           2             4    7     1       0.2556485398E-01       4    7    1         0.1345134237E+01      0.2985240567E+01
          0                 2           2             4    7     1      -0.2486777541E-02       4    7    1        -0.1345143928E+00      0.2985182783E+00
          0                 3           2             4    7     1       0.1693401909E-03       4    7    1         0.9416002385E-02      0.2089572036E-01
          0                 4           1             4    7     1      -0.6738205118E-05       4    7    1        -0.3851150766E-03      0.8546205442E-03

    ------------------------------------------------
       NWT REQUIRED            4 OUTER ITERATIONS 
       AND A TOTAL OF          7 INNER ITERATIONS.
    ------------------------------------------------

 NO OUTPUT CONTROL FOR STRESS PERIOD   13   TIME STEP   17
 
 SOLVING FOR HEAD 
                                                   Max.-Head-Change                         Max.-Flux-Residual
  Residual-Control   Outer-Iter.   Inner-Iter.     Column Row Layer    Maximum-Head-Change  Column Row Layer    Maximum-Flux-Residual          L2-NORM 
          0                 1           2             4    7     1       0.2524660126E-01       4    7    1         0.1328310777E+01      0.2954462600E+01
          0                 2           2             4    7     1      -0.2455819863E-02       4    7    1        -0.1328320220E+00      0.2954408372E+00
          0                 3           2             4    7     1       0.1672320916E-03       4    7    1         0.9298236627E-02      0.2068030639E-01
          0                 4           1             4    7     1      -0.6654322112E-05       4    7    1        -0.3802984500E-03      0.8457756984E-03

    ------------------------------------------------
       NWT REQUIRED            4 OUTER ITERATIONS 
       AND A TOTAL OF          7 INNER ITERATIONS.
    ------------------------------------------------

 NO OUTPUT CONTROL FOR STRESS PERIOD   13   TIME STEP   18
 
 SOLVING FOR HEAD 
                                                   Max.-Head-Change                         Max.-Flux-Residual
  Residual-Control   Outer-Iter.   Inner-Iter.     Column Row Layer    Maximum-Head-Change  Column Row Layer    Maximum-Flux-Residual          L2-NORM 
          0                 1           2             4    7     1       0.2493387767E-01       4    7    1         0.1311780378E+01      0.2924177056E+01
          0                 2           2             4    7     1      -0.2425400031E-02       4    7    1        -0.1311789582E+00      0.2924126562E+00
          0                 3           2             4    7     1       0.1651606171E-03       4    7    1         0.9182522334E-02      0.2046836136E-01
          0                 4           1             4    7     1      -0.6571896046E-05       4    7    1        -0.3755657256E-03      0.8371242296E-03

    ------------------------------------------------
       NWT REQUIRED            4 OUTER ITERATIONS 
       AND A TOTAL OF          7 INNER ITERATIONS.
    ------------------------------------------------

 NO OUTPUT CONTROL FOR STRESS PERIOD   13   TIME STEP   19
 
 SOLVING FOR HEAD 
                                                   Max.-Head-Change                         Max.-Flux-Residual
  Residual-Control   Outer-Iter.   Inner-Iter.     Column Row Layer    Maximum-Head-Change  Column Row Layer    Maximum-Flux-Residual          L2-NORM 
          0                 1           2             4    7     1       0.2462656293E-01       4    7    1         0.1295536656E+01      0.2894372598E+01
          0                 2           2             4    7     1      -0.2395506340E-02       4    7    1        -0.1295545626E+00      0.2894325148E+00
          0                 3           2             4    7     1       0.1631249711E-03       4    7    1         0.9068814814E-02      0.2025979728E-01
          0                 4           1             4    7     1      -0.6490895836E-05       4    7    1        -0.3709150858E-03      0.8285957397E-03

    ------------------------------------------------
       NWT REQUIRED            4 OUTER ITERATIONS 
       AND A TOTAL OF          7 INNER ITERATIONS.
    ------------------------------------------------

 NO OUTPUT CONTROL FOR STRESS PERIOD   13   TIME STEP   20
 
 SOLVING FOR HEAD 
                                                   Max.-Head-Change                         Max.-Flux-Residual
  Residual-Control   Outer-Iter.   Inner-Iter.     Column Row Layer    Maximum-Head-Change  Column Row Layer    Maximum-Flux-Residual          L2-NORM 
          0                 1           2             4    7     1       0.2432440249E-01       4    7    1         0.1279566026E+01      0.2865042152E+01
          0                 2           2             4    7     1      -0.2366114033E-02       4    7    1        -0.1279574768E+00      0.2864997522E+00
          0                 3           2             4    7     1       0.1611234670E-03       4    7    1         0.8957018963E-02      0.2005453352E-01
          0                 4           1             4    7     1      -0.6411254015E-05       4    7    1        -0.3663426260E-03      0.8202225923E-03

    ------------------------------------------------
       NWT REQUIRED            4 OUTER ITERATIONS 
       AND A TOTAL OF          7 INNER ITERATIONS.
    ------------------------------------------------

 NO OUTPUT CONTROL FOR STRESS PERIOD   13   TIME STEP   21
 
 SOLVING FOR HEAD 
                                                   Max.-Head-Change                         Max.-Flux-Residual
  Residual-Control   Outer-Iter.   Inner-Iter.     Column Row Layer    Maximum-Head-Change  Column Row Layer    Maximum-Flux-Residual          L2-NORM 
          0                 1           2             4    7     1       0.2402728771E-01       4    7    1         0.1263862636E+01      0.2836168480E+01
          0                 2           2             4    7     1      -0.2337212540E-02       4    7    1        -0.1263871158E+00      0.2836126402E+00
          0                 3           2             4    7     1       0.1591553857E-03       4    7    1         0.8847093860E-02      0.1985246960E-01
          0                 4           1             4    7     1      -0.6332942265E-05       4    7    1        -0.3618466819E-03      0.8119493818E-03

    ------------------------------------------------
       NWT REQUIRED            4 OUTER ITERATIONS 
       AND A TOTAL OF          7 INNER ITERATIONS.
    ------------------------------------------------

 NO OUTPUT CONTROL FOR STRESS PERIOD   13   TIME STEP   22
 
 SOLVING FOR HEAD 
                                                   Max.-Head-Change                         Max.-Flux-Residual
  Residual-Control   Outer-Iter.   Inner-Iter.     Column Row Layer    Maximum-Head-Change  Column Row Layer    Maximum-Flux-Residual          L2-NORM 
          0                 1           2             4    7     1       0.2373524548E-01       4    7    1         0.1248428202E+01      0.2807742546E+01
          0                 2           2             4    7     1      -0.2308804478E-02       4    7    1        -0.1248436510E+00      0.2807702631E+00
          0                 3           2             4    7     1       0.1572209052E-03       4    7    1         0.8739051489E-02      0.1965350954E-01
          0                 4           1             4    7     1      -0.6255967375E-05       4    7    1        -0.3574277416E-03      0.8037999276E-03

    ------------------------------------------------
       NWT REQUIRED            4 OUTER ITERATIONS 
       AND A TOTAL OF          7 INNER ITERATIONS.
    ------------------------------------------------

 NO OUTPUT CONTROL FOR STRESS PERIOD   13   TIME STEP   23
 
 SOLVING FOR HEAD 
                                                   Max.-Head-Change                         Max.-Flux-Residual
  Residual-Control   Outer-Iter.   Inner-Iter.     Column Row Layer    Maximum-Head-Change  Column Row Layer    Maximum-Flux-Residual          L2-NORM 
          0                 1           2             4    7     1       0.2344803212E-01       4    7    1         0.1233249424E+01      0.2779763199E+01
          0                 2           2             4    7     1      -0.2280866141E-02       4    7    1        -0.1233257522E+00      0.2779725235E+00
          0                 3           2             4    7     1       0.1553184112E-03       4    7    1         0.8632798730E-02      0.1945766994E-01
          0                 4           1             4    7     1      -0.6180265452E-05       4    7    1        -0.3530819984E-03      0.7957721001E-03

    ------------------------------------------------
       NWT REQUIRED            4 OUTER ITERATIONS 
       AND A TOTAL OF          7 INNER ITERATIONS.
    ------------------------------------------------

 NO OUTPUT CONTROL FOR STRESS PERIOD   13   TIME STEP   24
 
 SOLVING FOR HEAD 
                                                   Max.-Head-Change                         Max.-Flux-Residual
  Residual-Control   Outer-Iter.   Inner-Iter.     Column Row Layer    Maximum-Head-Change  Column Row Layer    Maximum-Flux-Residual          L2-NORM 
          0                 1           2             4    7     1       0.2316581547E-01       4    7    1         0.1218335711E+01      0.2752210414E+01
          0                 2           2             4    7     1      -0.2253413857E-02       4    7    1        -0.1218343607E+00      0.2752174210E+00
          0                 3           2             4    7     1       0.1534490153E-03       4    7    1         0.8528401462E-02      0.1926483170E-01
          0                 4           1             4    7     1      -0.6105880473E-05       4    7    1        -0.3488121449E-03      0.7879027578E-03

    ------------------------------------------------
       NWT REQUIRED            4 OUTER ITERATIONS 
       AND A TOTAL OF          7 INNER ITERATIONS.
    ------------------------------------------------

 NO OUTPUT CONTROL FOR STRESS PERIOD   13   TIME STEP   25
 
 SOLVING FOR HEAD 
                                                   Max.-Head-Change                         Max.-Flux-Residual
  Residual-Control   Outer-Iter.   Inner-Iter.     Column Row Layer    Maximum-Head-Change  Column Row Layer    Maximum-Flux-Residual          L2-NORM 
          0                 1           2             4    7     1       0.2288821046E-01       4    7    1         0.1203666370E+01      0.2725078551E+01
          0                 2           2             4    7     1      -0.2226410167E-02       4    7    1        -0.1203674070E+00      0.2725044306E+00
          0                 3           2             4    7     1       0.1516101671E-03       4    7    1         0.8425714847E-02      0.1907495261E-01
          0                 4           1             4    7     1      -0.6032711012E-05       4    7    1        -0.3446122580E-03      0.7801472076E-03

    ------------------------------------------------
       NWT REQUIRED            4 OUTER ITERATIONS 
       AND A TOTAL OF          7 INNER ITERATIONS.
    ------------------------------------------------

 NO OUTPUT CONTROL FOR STRESS PERIOD   13   TIME STEP   26
 
 SOLVING FOR HEAD 
                                                   Max.-Head-Change                         Max.-Flux-Residual
  Residual-Control   Outer-Iter.   Inner-Iter.     Column Row Layer    Maximum-Head-Change  Column Row Layer    Maximum-Flux-Residual          L2-NORM 
          0                 1           2             4    7     1       0.2261511922E-01       4    7    1         0.1189236134E+01      0.2698351911E+01
          0                 2           2             4    7     1      -0.2199845552E-02       4    7    1        -0.1189243642E+00      0.2698319025E+00
          0                 3           2             4    7     1       0.1498012178E-03       4    7    1         0.8324701988E-02      0.1888789121E-01
          0                 4           1             4    7     1      -0.5960731279E-05       4    7    1        -0.3404808151E-03      0.7724930474E-03

    ------------------------------------------------
       NWT REQUIRED            4 OUTER ITERATIONS 
       AND A TOTAL OF          7 INNER ITERATIONS.
    ------------------------------------------------

 NO OUTPUT CONTROL FOR STRESS PERIOD   13   TIME STEP   27
 
 SOLVING FOR HEAD 
                                                   Max.-Head-Change                         Max.-Flux-Residual
  Residual-Control   Outer-Iter.   Inner-Iter.     Column Row Layer    Maximum-Head-Change  Column Row Layer    Maximum-Flux-Residual          L2-NORM 
          0                 1           2             4    7     1       0.2234671971E-01       4    7    1         0.1175054630E+01      0.2672044090E+01
          0                 2           2             4    7     1      -0.2173737323E-02       4    7    1        -0.1175061951E+00      0.2672012546E+00
          0                 3           2             4    7     1       0.1480233470E-03       4    7    1         0.8225430278E-02      0.1870375214E-01
          0                 4           1             4    7     1      -0.5889988131E-05       4    7    1        -0.3364206091E-03      0.7649636934E-03

    ------------------------------------------------
       NWT REQUIRED            4 OUTER ITERATIONS 
       AND A TOTAL OF          7 INNER ITERATIONS.
    ------------------------------------------------

 NO OUTPUT CONTROL FOR STRESS PERIOD   13   TIME STEP   28
 
 SOLVING FOR HEAD 
                                                   Max.-Head-Change                         Max.-Flux-Residual
  Residual-Control   Outer-Iter.   Inner-Iter.     Column Row Layer    Maximum-Head-Change  Column Row Layer    Maximum-Flux-Residual          L2-NORM 
          0                 1           2             4    7     1       0.2208277046E-01       4    7    1         0.1161109033E+01      0.2646128189E+01
          0                 2           2             4    7     1      -0.2148061991E-02       4    7    1        -0.1161116174E+00      0.2646097982E+00
          0                 3           2             4    7     1       0.1462749546E-03       4    7    1         0.8127809971E-02      0.1852237822E-01
          0                 4           1             4    7     1      -0.5820417559E-05       4    7    1        -0.3324279173E-03      0.7575416287E-03

    ------------------------------------------------
       NWT REQUIRED            4 OUTER ITERATIONS 
       AND A TOTAL OF          7 INNER ITERATIONS.
    ------------------------------------------------

 NO OUTPUT CONTROL FOR STRESS PERIOD   13   TIME STEP   29
 
 SOLVING FOR HEAD 
                                                   Max.-Head-Change                         Max.-Flux-Residual
  Residual-Control   Outer-Iter.   Inner-Iter.     Column Row Layer    Maximum-Head-Change  Column Row Layer    Maximum-Flux-Residual          L2-NORM 
          0                 1           2             4    7     1       0.2182317447E-01       4    7    1         0.1147394175E+01      0.2620599160E+01
          0                 2           2             4    7     1      -0.2122810119E-02       4    7    1        -0.1147401140E+00      0.2620569843E+00
          0                 3           2             4    7     1       0.1445553982E-03       4    7    1         0.8031804851E-02      0.1834367127E-01
          0                 4           1             4    7     1      -0.5751994808E-05       4    7    1        -0.3285013017E-03      0.7502292041E-03

    ------------------------------------------------
       NWT REQUIRED            4 OUTER ITERATIONS 
       AND A TOTAL OF          7 INNER ITERATIONS.
    ------------------------------------------------

 NO OUTPUT CONTROL FOR STRESS PERIOD   13   TIME STEP   30



 STREAM LISTING     PERIOD     13   STEP       30

 LAYER ROW COL. STREAM  RCH.  FLOW INTO     FLOW TO   FLOW OUT OF   OVRLND.     DIRECT     STREAM       STREAM     STREAM     STREAM   STREAMBED  STREAMBED
                SEG.NO.  NO.  STRM. RCH.    AQUIFER    STRM. RCH.    RUNOFF     PRECIP       ET          HEAD       DEPTH      WIDTH   CONDCTNC.   GRADIENT

   1    1    1     1     1    2.3000E+01  2.3574E-01   2.2764E+01  0.000E+00  0.000E+00  0.000E+00  1.09420E+03  1.148E+00  1.263E+01  5.684E-02  1.383E+00
   1    2    2     1     2    2.2764E+01  3.6445E-01   2.2400E+01  0.000E+00  0.000E+00  0.000E+00  1.08920E+03  1.143E+00  1.257E+01  8.797E-02  1.381E+00
   1    3    3     1     3    2.2400E+01  3.1019E-01   2.2089E+01  0.000E+00  0.000E+00  0.000E+00  1.08356E+03  1.138E+00  1.250E+01  7.497E-02  1.379E+00
   1    3    4     1     4    2.2089E+01  2.8513E-01   2.1804E+01  0.000E+00  0.000E+00  0.000E+00  1.07854E+03  1.133E+00  1.243E+01  6.899E-02  1.378E+00
   1    4    5     2     1    1.9804E+01  3.1551E-01   1.9489E+01  0.000E+00  0.000E+00  0.000E+00  1.07298E+03  1.045E+00  1.200E+01  7.800E-02  1.348E+00
   1    5    6     2     2    1.9489E+01  2.4216E-01   1.9247E+01  0.000E+00  0.000E+00  0.000E+00  1.06755E+03  1.036E+00  1.200E+01  6.000E-02  1.345E+00
   1    6    6     2     3    1.9247E+01  2.4170E-01   1.9005E+01  0.000E+00  0.000E+00  0.000E+00  1.06282E+03  1.028E+00  1.200E+01  6.000E-02  1.343E+00
   1    7    6     2     4    1.9005E+01  2.4123E-01   1.8764E+01  0.000E+00  0.000E+00  0.000E+00  1.05810E+03  1.020E+00  1.200E+01  6.000E-02  1.340E+00
   1    8    6     2     5    1.8764E+01  2.4076E-01   1.8523E+01  0.000E+00  0.000E+00  0.000E+00  1.05337E+03  1.013E+00  1.200E+01  6.000E-02  1.338E+00
   1    3    5     3     1    2.0000E+00  2.8252E-01   1.7175E+00  0.000E+00  0.000E+00  0.000E+00  1.07555E+03  1.909E+00  9.636E+00  7.227E-02  1.955E+00
   1    3    6     3     2    1.7175E+00  2.4905E-01   1.4684E+00  0.000E+00  0.000E+00  0.000E+00  1.07264E+03  1.727E+00  8.909E+00  6.682E-02  1.864E+00
   1    3    7     3     3    1.4684E+00  1.9718E-01   1.2712E+00  0.000E+00  0.000E+00  0.000E+00  1.06987E+03  1.555E+00  8.218E+00  5.547E-02  1.777E+00
   1    4    8     3     4    1.2712E+00  2.2567E-01   1.0456E+00  0.000E+00  0.000E+00  0.000E+00  1.06682E+03  1.364E+00  7.455E+00  6.709E-02  1.682E+00
   1    5    8     3     5    1.0456E+00  1.5790E-01   8.8768E-01  0.000E+00  0.000E+00  0.000E+00  1.06362E+03  1.164E+00  6.655E+00  4.991E-02  1.582E+00
   1    6    8     3     6    8.8768E-01  5.5980E-02   8.3170E-01  0.000E+00  0.000E+00  0.000E+00  1.06158E+03  1.036E+00  6.145E+00  1.844E-02  1.518E+00
   1    5   10     4     1    1.0000E+01  9.0919E-02   9.9091E+00  0.000E+00  0.000E+00  0.000E+00  1.07836E+03  6.368E-01  1.000E+01  2.500E-02  1.212E+00
   1    5    9     4     2    9.9091E+00  1.8158E-01   9.7275E+00  0.000E+00  0.000E+00  0.000E+00  1.07154E+03  6.315E-01  1.000E+01  5.000E-02  1.211E+00
   1    6    8     4     3    9.7275E+00  1.2689E-01   9.6006E+00  0.000E+00  0.000E+00  0.000E+00  1.06381E+03  6.256E-01  1.000E+01  3.500E-02  1.209E+00
   1    6    8     5     1    1.0432E+01  2.2686E-01   1.0205E+01  0.000E+00  0.000E+00  0.000E+00  1.05868E+03  6.790E-01  1.542E+01  6.166E-02  1.226E+00
   1    7    7     5     2    1.0205E+01  2.7894E-01   9.9265E+00  0.000E+00  0.000E+00  0.000E+00  1.05417E+03  6.732E-01  1.519E+01  7.594E-02  1.224E+00
   1    8    7     5     3    9.9265E+00  1.9221E-01   9.7343E+00  0.000E+00  0.000E+00  0.000E+00  1.04992E+03  6.676E-01  1.497E+01  5.241E-02  1.223E+00
   1    8    6     5     4    9.7343E+00  1.3577E-01   9.5985E+00  0.000E+00  0.000E+00  0.000E+00  1.04691E+03  6.637E-01  1.482E+01  3.706E-02  1.221E+00
   1    9    6     6     1    2.8121E+01  2.5841E-01   2.7863E+01  0.000E+00  0.000E+00  0.000E+00  1.04403E+03  1.307E+00  1.200E+01  6.000E-02  1.436E+00
   1   10    7     6     2    2.7863E+01  2.5797E-01   2.7605E+01  0.000E+00  0.000E+00  0.000E+00  1.03948E+03  1.300E+00  1.200E+01  6.000E-02  1.433E+00
   1   11    7     6     3    2.7605E+01  2.5753E-01   2.7348E+01  0.000E+00  0.000E+00  0.000E+00  1.03493E+03  1.292E+00  1.200E+01  6.000E-02  1.431E+00
   1   12    7     6     4    2.7348E+01  2.5710E-01   2.7090E+01  0.000E+00  0.000E+00  0.000E+00  1.03038E+03  1.285E+00  1.200E+01  6.000E-02  1.428E+00
   1   13    7     6     5    2.7090E+01  3.5141E-04   2.7090E+01  0.000E+00  0.000E+00  0.000E+00  1.02719E+03  1.281E+00  1.200E+01  2.400E-02  4.881E-03
   1   14    9     7     1    1.5000E+02  1.3296E+00   1.4867E+02  0.000E+00  0.000E+00  0.000E+00  1.03987E+03  2.288E+00  5.529E+01  5.593E-01  7.924E-01
   1   13    8     7     2    1.4867E+02  1.8002E+00   1.4687E+02  0.000E+00  0.000E+00  0.000E+00  1.03478E+03  2.279E+00  5.526E+01  6.148E-01  9.760E-01
   1   13    7     7     3    1.4687E+02  1.4042E+00   1.4547E+02  0.000E+00  0.000E+00  0.000E+00  1.02969E+03  2.271E+00  5.522E+01  5.585E-01  8.381E-01
   1   13    6     8     1    1.7256E+02  8.7203E-01   1.7168E+02  0.000E+00  0.000E+00  0.000E+00  1.02484E+03  2.966E+00  4.301E+01  4.382E-01  6.633E-01
   1   13    5     8     2    1.7168E+02  1.3386E-01   1.7155E+02  0.000E+00  0.000E+00  0.000E+00  1.01859E+03  2.963E+00  4.296E+01  4.378E-01  1.019E-01
   1   13    4     8     3    1.7155E+02 -2.5616E+00   1.7411E+02  0.000E+00  0.000E+00  0.000E+00  1.01235E+03  2.971E+00  4.307E+01  4.389E+00 -1.945E-01
   1   13    3     8     4    1.7411E+02 -3.7271E+00   1.7784E+02  0.000E+00  0.000E+00  0.000E+00  1.00612E+03  2.991E+00  4.337E+01  4.419E+00 -2.811E-01
   1   13    2     8     5    1.7784E+02 -2.6052E+00   1.8044E+02  0.000E+00  0.000E+00  0.000E+00  9.99886E+02  3.011E+00  4.366E+01  4.449E+00 -1.952E-01
   1   13    1     8     6    1.8044E+02 -2.0003E+00   1.8244E+02  0.000E+00  0.000E+00  0.000E+00  9.94900E+02  3.025E+00  4.387E+01  2.682E+00 -2.486E-01





UNSATURATED ZONE PACKAGE VOLUMETRIC BUDGET FOR  TIME STEP    30 STRESS PERIOD   13
  ------------------------------------------------------------------------------



     CUMULATIVE VOLUMES      L**3       RATES FOR THIS TIME STEP      L**3/T
     ------------------                 ------------------------

           IN:                                      IN:
           ---                                      ---
        INFILTRATION =   537451702.1453          INFILTRATION =           4.4075

          OUT:                                     OUT:
          ----                                     ----
              UZF ET =   498089705.4800                UZF ET =           0.7250
        UZF RECHARGE =       73224.0000          UZF RECHARGE =       0.0000E+00

            IN - OUT =    39288772.6653              IN - OUT =           3.6825

          STORAGE:                                 STORAGE:
          --------                                 --------
      STORAGE CHANGE =    39288761.5080        STORAGE CHANGE =           3.6825

 PERCENT DISCREPANCY IS DIFFERENCE BETWEEN IN-OUT MINUS CHANGE IN STORAGE
 DIVIDED BY THE AVERAGE OF IN AND OUT TIMES 100

 PERCENT DISCREPANCY =           0.00     PERCENT DISCREPANCY =           0.00






1
  VOLUMETRIC BUDGET FOR AGRICULTURAL FIELDS AT TIME STEP   30, STRESS PERIOD  13
  ------------------------------------------------------------------------------

     CUMULATIVE VOLUMES      L**3       RATES FOR THIS TIME STEP      L**3/T
     ------------------                 ------------------------

           IN:                                      IN:
           ---                                      ---
               AG WELLS  =   398277792.0000                 AG WELLS  =           0.0000
      DIVERSION SEGMENTS =           0.0000        DIVERSION SEGMENTS =           0.0000
           GW IRRIGATION =           0.0000             GW IRRIGATION =           0.0000
           SW IRRIGATION =           0.0000             SW IRRIGATION =           0.0000
        SYSTEM LOSSES GW =           0.0000          SYSTEM LOSSES GW =           0.0000
        SYSTEM LOSSES SW =           0.0000          SYSTEM LOSSES SW =           0.0000

                TOTAL IN =   398277792.0000                  TOTAL IN =           0.0000

          OUT:                                     OUT:
          ----                                     ----
               AG WELLS  =           0.0000                 AG WELLS  =           0.0000
      DIVERSION SEGMENTS =           0.0000        DIVERSION SEGMENTS =           0.0000
           GW IRRIGATION =   398277792.0000             GW IRRIGATION =           0.0000
           SW IRRIGATION =           0.0000             SW IRRIGATION =           0.0000
        SYSTEM LOSSES GW =           0.0000          SYSTEM LOSSES GW =           0.0000
        SYSTEM LOSSES SW =           0.0000          SYSTEM LOSSES SW =           0.0000

               TOTAL OUT =   398277792.0000                 TOTAL OUT =           0.0000

                IN - OUT =           0.0000                  IN - OUT =           0.0000

     PERCENT DISCREPANCY =           0.00         PERCENT DISCREPANCY =           0.00



1
  VOLUMETRIC BUDGET FOR ENTIRE MODEL AT END OF TIME STEP   30, STRESS PERIOD  13
  ------------------------------------------------------------------------------

     CUMULATIVE VOLUMES      L**3       RATES FOR THIS TIME STEP      L**3/T
     ------------------                 ------------------------

           IN:                                      IN:
           ---                                      ---
             STORAGE     =   527160960.0000               STORAGE     =           7.6227
       CONSTANT HEAD     =           0.0000         CONSTANT HEAD     =           0.0000
     HEAD DEP BOUNDS     =     9032899.0000       HEAD DEP BOUNDS     =           0.2853
      STREAM LEAKAGE     =   394422880.0000        STREAM LEAKAGE     =          11.4495
        UZF RECHARGE     =       73223.9531          UZF RECHARGE     =           0.0000
               GW ET     =           0.0000                 GW ET     =           0.0000
     SURFACE LEAKAGE     =           0.0000       SURFACE LEAKAGE     =           0.0000
           AG WELLS      =           0.0000             AG WELLS      =           0.0000

                TOTAL IN =   930689920.0000                  TOTAL IN =          19.3576

          OUT:                                     OUT:
          ----                                     ----
             STORAGE     =   180620672.0000               STORAGE     =           8.1728
       CONSTANT HEAD     =           0.0000         CONSTANT HEAD     =           0.0000
     HEAD DEP BOUNDS     =     9325137.0000       HEAD DEP BOUNDS     =           0.2905
      STREAM LEAKAGE     =   328875776.0000        STREAM LEAKAGE     =          10.8942
        UZF RECHARGE     =           0.0000          UZF RECHARGE     =           0.0000
               GW ET     =    13594306.0000                 GW ET     =           0.0000
     SURFACE LEAKAGE     =           0.0000       SURFACE LEAKAGE     =           0.0000
           AG WELLS      =   398277792.0000             AG WELLS      =           0.0000

               TOTAL OUT =   930693632.0000                 TOTAL OUT =          19.3576

                IN - OUT =       -3712.0000                  IN - OUT =       5.7220E-06

     PERCENT DISCREPANCY =          -0.00         PERCENT DISCREPANCY =           0.00






         TIME SUMMARY AT END OF TIME STEP   30 IN STRESS PERIOD   13
                    SECONDS     MINUTES      HOURS       DAYS        YEARS
                    -----------------------------------------------------------
   TIME STEP LENGTH  87667.      1461.1      24.352      1.0147     2.77799E-03
 STRESS PERIOD TIME 2.63000E+06  43833.      730.56      30.440     8.33397E-02
         TOTAL TIME 3.16463E+07 5.27439E+05  8790.6      366.28      1.0028    
1
1
                            STRESS PERIOD NO.   14, LENGTH =   2630000.    
                            -----------------------------------------------

                              NUMBER OF TIME STEPS =    30

                               MULTIPLIER FOR DELT =     1.000

                            INITIAL TIME STEP SIZE =   87666.66    

 REUSING NON-PARAMETER GHB CELLS FROM LAST STRESS PERIOD

      2 GHB CELLS

 REUSING STREAM SEGMENT DATA FROM LAST STRESS PERIOD



            AREAL INFILTRATION RATE
 READING ON UNIT   19 WITH FORMAT: (10F4.0)            

            1           2           3           4           5           6           7           8           9          10
 ........................................................................................................................
   1   1.2000E-09   0.000       0.000       0.000       0.000       0.000       0.000       0.000       0.000       0.000    
   2   2.1000E-09  2.0000E-09  8.0000E-10  8.5000E-09   0.000       0.000       0.000       0.000       0.000       0.000    
   3   5.0000E-10  1.1000E-09  8.8000E-09  5.5000E-09   0.000       0.000       0.000       0.000       0.000       0.000    
   4   8.5000E-09  1.1000E-09  1.1000E-09  1.1000E-09  2.0000E-09   0.000       0.000       0.000       0.000       0.000    
   5   8.5000E-09  1.1000E-09  1.1000E-09  1.1000E-09  1.1000E-09   0.000       0.000       0.000       0.000       0.000    
   6   8.5000E-09  5.2000E-09  2.1000E-09  1.1000E-09  1.5000E-09   0.000       0.000       0.000       0.000       0.000    
   7   8.5000E-09  5.2000E-09  2.1000E-09  1.2000E-09  2.0000E-09   0.000       0.000       0.000       0.000       0.000    
   8   5.0000E-10  5.2000E-09  2.1000E-09  1.2000E-09  5.0000E-09   0.000       0.000       0.000       0.000       0.000    
   9   5.0000E-10  5.2000E-09  2.1000E-09  1.2000E-09  5.0000E-09   0.000       0.000       0.000       0.000       0.000    
  10   5.0000E-10  5.2000E-09  2.1000E-09  1.2000E-09  5.8000E-09   0.000       0.000       0.000       0.000       0.000    
  11   1.0000E-10  1.1000E-09  1.1000E-09  1.2000E-09  5.0000E-09   0.000       0.000       0.000       0.000       0.000    
  12   1.1000E-09  1.1000E-09  1.1000E-09  1.1000E-09  2.0000E-09   0.000       0.000       0.000       0.000       0.000    
  13   1.1000E-09  2.2000E-09  2.2000E-09  2.1000E-09  1.0000E-09   0.000       0.000       0.000       0.000       0.000    
  14   2.0000E-10  5.5000E-09  5.5000E-09  5.2000E-09  1.0000E-09   0.000       0.000       0.000       0.000       0.000    
  15    0.000      8.8000E-09  8.8000E-09   0.000       0.000       0.000       0.000       0.000       0.000       0.000    

                  ET RATE =  5.000000E-10

 USING ET EXTINCTION DEPTH FROM PREVIOUS STRESS PERIOD. CURRENT PERIOD IS:      14

 USING EXTINCTION WATER CONTENT FROM PREVIOUS STRESS PERIOD. CURRENT PERIOD IS:      14

 USING AIR ENTRY PRESSURE FROM PREVIOUS STRESS PERIOD. CURRENT PERIOD IS:      14

 USING ROOT PRESSURE HEAD FROM PREVIOUS STRESS PERIOD. CURRENT PERIOD IS:      14

 USING ROOT ACTIVITY FROM PREVIOUS STRESS PERIOD. CURRENT PERIOD IS:      14

 PROCESSING AG STRESS PERIOD DATA

 READING AG STRESS PERIOD DATA

 READING IRRIGATION WELL

 END PROCESSING AG STRESS PERIOD DATA OPTIONS
 
 SOLVING FOR HEAD 
                                                   Max.-Head-Change                         Max.-Flux-Residual
  Residual-Control   Outer-Iter.   Inner-Iter.     Column Row Layer    Maximum-Head-Change  Column Row Layer    Maximum-Flux-Residual          L2-NORM 
          0                 1           2             4    7     1       0.2156782428E-01       4    7    1         0.1133905026E+01      0.2598922668E+01
          0                 2           2             4    7     1      -0.2097971255E-02       4    7    1        -0.1133911819E+00      0.2598332510E+00
          0                 3           2             4    7     1       0.1428639660E-03       4    7    1         0.7937379736E-02      0.1818722241E-01
          0                 4           1             4    7     1      -0.5684691213E-05       4    7    1        -0.3246393021E-03      0.7438003524E-03

    ------------------------------------------------
       NWT REQUIRED            4 OUTER ITERATIONS 
       AND A TOTAL OF          7 INNER ITERATIONS.
    ------------------------------------------------

 NO OUTPUT CONTROL FOR STRESS PERIOD   14   TIME STEP    1
 
 SOLVING FOR HEAD 
                                                   Max.-Head-Change                         Max.-Flux-Residual
  Residual-Control   Outer-Iter.   Inner-Iter.     Column Row Layer    Maximum-Head-Change  Column Row Layer    Maximum-Flux-Residual          L2-NORM 
          0                 1           2             4    7     1       0.2131660813E-01       4    7    1         0.1120636014E+01      0.2583423556E+01
          0                 2           2             4    7     1      -0.2073534528E-02       4    7    1        -0.1120642641E+00      0.2583012520E+00
          0                 3           2             4    7     1       0.1411999179E-03       4    7    1         0.7844495588E-02      0.1807730378E-01
          0                 4           1             4    7     1      -0.5618477300E-05       4    7    1        -0.3208403521E-03      0.7390895662E-03

    ------------------------------------------------
       NWT REQUIRED            4 OUTER ITERATIONS 
       AND A TOTAL OF          7 INNER ITERATIONS.
    ------------------------------------------------

 NO OUTPUT CONTROL FOR STRESS PERIOD   14   TIME STEP    2
 
 SOLVING FOR HEAD 
                                                   Max.-Head-Change                         Max.-Flux-Residual
  Residual-Control   Outer-Iter.   Inner-Iter.     Column Row Layer    Maximum-Head-Change  Column Row Layer    Maximum-Flux-Residual          L2-NORM 
          0                 1           2             4    7     1       0.2106957323E-01       4    7    1         0.1107588697E+01      0.2558256451E+01
          0                 2           2             4    7     1      -0.2049504530E-02       4    7    1        -0.1107595163E+00      0.2557889910E+00
          0                 3           2             4    7     1       0.1395635667E-03       4    7    1         0.7753163372E-02      0.1790413712E-01
          0                 4           1             4    7     1      -0.5553365505E-05       4    7    1        -0.3171048493E-03      0.7379052876E-03

    ------------------------------------------------
       NWT REQUIRED            4 OUTER ITERATIONS 
       AND A TOTAL OF          7 INNER ITERATIONS.
    ------------------------------------------------

 NO OUTPUT CONTROL FOR STRESS PERIOD   14   TIME STEP    3
 
 SOLVING FOR HEAD 
                                                   Max.-Head-Change                         Max.-Flux-Residual
  Residual-Control   Outer-Iter.   Inner-Iter.     Column Row Layer    Maximum-Head-Change  Column Row Layer    Maximum-Flux-Residual          L2-NORM 
          0                 1           2             4    7     1       0.2082649674E-01       4    7    1         0.1094750819E+01      0.2533542299E+01
          0                 2           2             4    7     1      -0.2025859583E-02       4    7    1        -0.1094757128E+00      0.2533214108E+00
          0                 3           2             4    7     1       0.1379534356E-03       4    7    1         0.7663297237E-02      0.1772941974E-01
          0                 4           1             4    7     1      -0.5489296419E-05       4    7    1        -0.3134293074E-03      0.7250648304E-03

    ------------------------------------------------
       NWT REQUIRED            4 OUTER ITERATIONS 
       AND A TOTAL OF          7 INNER ITERATIONS.
    ------------------------------------------------

 NO OUTPUT CONTROL FOR STRESS PERIOD   14   TIME STEP    4
 
 SOLVING FOR HEAD 
                                                   Max.-Head-Change                         Max.-Flux-Residual
  Residual-Control   Outer-Iter.   Inner-Iter.     Column Row Layer    Maximum-Head-Change  Column Row Layer    Maximum-Flux-Residual          L2-NORM 
          0                 1           2             4    7     1       0.2058729060E-01       4    7    1         0.1082118177E+01      0.2509252732E+01
          0                 2           2             4    7     1      -0.2002591122E-02       4    7    1        -0.1082124333E+00      0.2508957576E+00
          0                 3           2             4    7     1       0.1363689421E-03       4    7    1         0.7574867781E-02      0.1756003194E-01
          0                 4           1             4    7     1      -0.5426248170E-05       4    7    1        -0.3098125503E-03      0.7180516776E-03

    ------------------------------------------------
       NWT REQUIRED            4 OUTER ITERATIONS 
       AND A TOTAL OF          7 INNER ITERATIONS.
    ------------------------------------------------

 NO OUTPUT CONTROL FOR STRESS PERIOD   14   TIME STEP    5
 
 SOLVING FOR HEAD 
                                                   Max.-Head-Change                         Max.-Flux-Residual
  Residual-Control   Outer-Iter.   Inner-Iter.     Column Row Layer    Maximum-Head-Change  Column Row Layer    Maximum-Flux-Residual          L2-NORM 
          0                 1           2             4    7     1       0.2035201196E-01       4    7    1         0.1069693559E+01      0.2485373743E+01
          0                 2           2             4    7     1      -0.1979704706E-02       4    7    1        -0.1069699567E+00      0.2485108591E+00
          0                 3           2             4    7     1       0.1348104643E-03       4    7    1         0.7487894519E-02      0.1739330560E-01
          0                 4           1             4    7     1      -0.5364235149E-05       4    7    1        -0.3062553501E-03      0.7112419444E-03

    ------------------------------------------------
       NWT REQUIRED            4 OUTER ITERATIONS 
       AND A TOTAL OF          7 INNER ITERATIONS.
    ------------------------------------------------

 NO OUTPUT CONTROL FOR STRESS PERIOD   14   TIME STEP    6
 
 SOLVING FOR HEAD 
                                                   Max.-Head-Change                         Max.-Flux-Residual
  Residual-Control   Outer-Iter.   Inner-Iter.     Column Row Layer    Maximum-Head-Change  Column Row Layer    Maximum-Flux-Residual          L2-NORM 
          0                 1           2             4    7     1       0.2012043904E-01       4    7    1         0.1057465222E+01      0.2461895914E+01
          0                 2           2             4    7     1      -0.1957178762E-02       4    7    1        -0.1057471086E+00      0.2461656245E+00
          0                 3           2             4    7     1       0.1332765330E-03       4    7    1         0.7402295249E-02      0.1722934937E-01
          0                 4           1             4    7     1      -0.5303198410E-05       4    7    1        -0.3027543291E-03      0.7052777732E-03

    ------------------------------------------------
       NWT REQUIRED            4 OUTER ITERATIONS 
       AND A TOTAL OF          7 INNER ITERATIONS.
    ------------------------------------------------

 NO OUTPUT CONTROL FOR STRESS PERIOD   14   TIME STEP    7
 
 SOLVING FOR HEAD 
                                                   Max.-Head-Change                         Max.-Flux-Residual
  Residual-Control   Outer-Iter.   Inner-Iter.     Column Row Layer    Maximum-Head-Change  Column Row Layer    Maximum-Flux-Residual          L2-NORM 
          0                 1           2             4    7     1       0.1989249221E-01       4    7    1         0.1045429021E+01      0.2438780011E+01
          0                 2           2             4    7     1      -0.1935005543E-02       4    7    1        -0.1045434743E+00      0.2438564190E+00
          0                 3           2             4    7     1       0.1317666208E-03       4    7    1         0.7318040940E-02      0.1706799020E-01
          0                 4           1             4    7     1      -0.5243117690E-05       4    7    1        -0.2993083178E-03      0.6979856856E-03

    ------------------------------------------------
       NWT REQUIRED            4 OUTER ITERATIONS 
       AND A TOTAL OF          7 INNER ITERATIONS.
    ------------------------------------------------

 NO OUTPUT CONTROL FOR STRESS PERIOD   14   TIME STEP    8
 
 SOLVING FOR HEAD 
                                                   Max.-Head-Change                         Max.-Flux-Residual
  Residual-Control   Outer-Iter.   Inner-Iter.     Column Row Layer    Maximum-Head-Change  Column Row Layer    Maximum-Flux-Residual          L2-NORM 
          0                 1           2             4    7     1       0.1966837088E-01       4    7    1         0.1033595534E+01      0.2416047981E+01
          0                 2           2             4    7     1      -0.1913204446E-02       4    7    1        -0.1033601120E+00      0.2415851897E+00
          0                 3           2             4    7     1       0.1302820491E-03       4    7    1         0.7235205690E-02      0.1690913800E-01
          0                 4           1             4    7     1      -0.5184045027E-05       4    7    1        -0.2959203400E-03      0.6914565936E-03

    ------------------------------------------------
       NWT REQUIRED            4 OUTER ITERATIONS 
       AND A TOTAL OF          7 INNER ITERATIONS.
    ------------------------------------------------

 NO OUTPUT CONTROL FOR STRESS PERIOD   14   TIME STEP    9
 
 SOLVING FOR HEAD 
                                                   Max.-Head-Change                         Max.-Flux-Residual
  Residual-Control   Outer-Iter.   Inner-Iter.     Column Row Layer    Maximum-Head-Change  Column Row Layer    Maximum-Flux-Residual          L2-NORM 
          0                 1           2             4    7     1       0.1944771600E-01       4    7    1         0.1021945685E+01      0.2393659969E+01
          0                 2           2             4    7     1      -0.1891740546E-02       4    7    1        -0.1021951138E+00      0.2393481248E+00
          0                 3           2             4    7     1       0.1288204389E-03       4    7    1         0.7153655893E-02      0.1675270934E-01
          0                 4           1             4    7     1      -0.5125886363E-05       4    7    1        -0.2925849544E-03      0.6850385188E-03

    ------------------------------------------------
       NWT REQUIRED            4 OUTER ITERATIONS 
       AND A TOTAL OF          7 INNER ITERATIONS.
    ------------------------------------------------

 NO OUTPUT CONTROL FOR STRESS PERIOD   14   TIME STEP   10
 
 SOLVING FOR HEAD 
                                                   Max.-Head-Change                         Max.-Flux-Residual
  Residual-Control   Outer-Iter.   Inner-Iter.     Column Row Layer    Maximum-Head-Change  Column Row Layer    Maximum-Flux-Residual          L2-NORM 
          0                 1           2             4    7     1       0.1923045575E-01       4    7    1         0.1010475565E+01      0.2371610854E+01
          0                 2           2             4    7     1      -0.1870606855E-02       4    7    1        -0.1010480888E+00      0.2371448374E+00
          0                 3           2             4    7     1       0.1273813150E-03       4    7    1         0.7073364234E-02      0.1659867599E-01
          0                 4           1             4    7     1      -0.5068622355E-05       4    7    1        -0.2893010387E-03      0.6787984730E-03

    ------------------------------------------------
       NWT REQUIRED            4 OUTER ITERATIONS 
       AND A TOTAL OF          7 INNER ITERATIONS.
    ------------------------------------------------

 NO OUTPUT CONTROL FOR STRESS PERIOD   14   TIME STEP   11
 
 SOLVING FOR HEAD 
                                                   Max.-Head-Change                         Max.-Flux-Residual
  Residual-Control   Outer-Iter.   Inner-Iter.     Column Row Layer    Maximum-Head-Change  Column Row Layer    Maximum-Flux-Residual          L2-NORM 
          0                 1           2             4    7     1       0.1901679373E-01       4    7    1         0.9991961611E+00      0.2349902533E+01
          0                 2           2             4    7     1      -0.1849823664E-02       4    7    1        -0.9992013580E-01      0.2350066573E+00
          0                 3           2             4    7     1       0.1259660585E-03       4    7    1         0.6994407600E-02      0.1644907897E-01
          0                 4           1             4    7     1      -0.5012307804E-05       4    7    1        -0.2860717068E-03      0.6726604004E-03

    ------------------------------------------------
       NWT REQUIRED            4 OUTER ITERATIONS 
       AND A TOTAL OF          7 INNER ITERATIONS.
    ------------------------------------------------

 NO OUTPUT CONTROL FOR STRESS PERIOD   14   TIME STEP   12
 
 SOLVING FOR HEAD 
                                                   Max.-Head-Change                         Max.-Flux-Residual
  Residual-Control   Outer-Iter.   Inner-Iter.     Column Row Layer    Maximum-Head-Change  Column Row Layer    Maximum-Flux-Residual          L2-NORM 
          0                 1           2             4    7     1       0.1880637185E-01       4    7    1         0.9880885839E+00      0.2328483656E+01
          0                 2           2             4    7     1      -0.1829354688E-02       4    7    1        -0.9880936580E-01      0.2328346521E+00
          0                 3           1             4    7     1       0.1245722014E-03       4    7    1         0.6916653801E-02      0.1629714767E-01
          0                 4           1             4    7     1      -0.4956847270E-05       4    7    1        -0.2828915590E-03      0.6664683970E-03

    ------------------------------------------------
       NWT REQUIRED            4 OUTER ITERATIONS 
       AND A TOTAL OF          6 INNER ITERATIONS.
    ------------------------------------------------

 NO OUTPUT CONTROL FOR STRESS PERIOD   14   TIME STEP   13
 
 SOLVING FOR HEAD 
                                                   Max.-Head-Change                         Max.-Flux-Residual
  Residual-Control   Outer-Iter.   Inner-Iter.     Column Row Layer    Maximum-Head-Change  Column Row Layer    Maximum-Flux-Residual          L2-NORM 
          0                 1           2             4    7     1       0.1859926172E-01       4    7    1         0.9771564092E+00      0.2307360337E+01
          0                 2           2             4    7     1      -0.1809208343E-02       4    7    1        -0.9771613641E-01      0.2307235349E+00
          0                 3           1             4    7     1       0.1232003114E-03       4    7    1         0.6840127805E-02      0.1614952282E-01
          0                 4           1             4    7     1      -0.4902258367E-05       4    7    1        -0.2797616428E-03      0.6604550583E-03

    ------------------------------------------------
       NWT REQUIRED            4 OUTER ITERATIONS 
       AND A TOTAL OF          6 INNER ITERATIONS.
    ------------------------------------------------

 NO OUTPUT CONTROL FOR STRESS PERIOD   14   TIME STEP   14
 
 SOLVING FOR HEAD 
                                                   Max.-Head-Change                         Max.-Flux-Residual
  Residual-Control   Outer-Iter.   Inner-Iter.     Column Row Layer    Maximum-Head-Change  Column Row Layer    Maximum-Flux-Residual          L2-NORM 
          0                 1           2             4    7     1       0.1839539353E-01       4    7    1         0.9663959175E+00      0.2286555238E+01
          0                 2           2             4    7     1      -0.1789377355E-02       4    7    1        -0.9664007561E-01      0.2286438953E+00
          0                 3           1             4    7     1       0.1218498963E-03       4    7    1         0.6764803622E-02      0.1600398004E-01
          0                 4           1             4    7     1      -0.4848524056E-05       4    7    1        -0.2766808775E-03      0.6545444053E-03

    ------------------------------------------------
       NWT REQUIRED            4 OUTER ITERATIONS 
       AND A TOTAL OF          6 INNER ITERATIONS.
    ------------------------------------------------

 NO OUTPUT CONTROL FOR STRESS PERIOD   14   TIME STEP   15
 
 SOLVING FOR HEAD 
                                                   Max.-Head-Change                         Max.-Flux-Residual
  Residual-Control   Outer-Iter.   Inner-Iter.     Column Row Layer    Maximum-Head-Change  Column Row Layer    Maximum-Flux-Residual          L2-NORM 
          0                 1           2             4    7     1       0.1819469708E-01       4    7    1         0.9558035156E+00      0.2266044521E+01
          0                 2           2             4    7     1      -0.1769854897E-02       4    7    1        -0.9558082411E-01      0.2265937525E+00
          0                 3           1             4    7     1       0.1205204911E-03       4    7    1         0.6690656122E-02      0.1586051577E-01
          0                 4           1             4    7     1      -0.4795625802E-05       4    7    1        -0.2736482313E-03      0.6486326696E-03

    ------------------------------------------------
       NWT REQUIRED            4 OUTER ITERATIONS 
       AND A TOTAL OF          6 INNER ITERATIONS.
    ------------------------------------------------

 NO OUTPUT CONTROL FOR STRESS PERIOD   14   TIME STEP   16
 
 SOLVING FOR HEAD 
                                                   Max.-Head-Change                         Max.-Flux-Residual
  Residual-Control   Outer-Iter.   Inner-Iter.     Column Row Layer    Maximum-Head-Change  Column Row Layer    Maximum-Flux-Residual          L2-NORM 
          0                 1           2             4    7     1       0.1799710715E-01       4    7    1         0.9453755634E+00      0.2245822447E+01
          0                 2           2             4    7     1      -0.1750634621E-02       4    7    1        -0.9453801787E-01      0.2245723233E+00
          0                 3           1             4    7     1       0.1192116631E-03       4    7    1         0.6617659746E-02      0.1571910175E-01
          0                 4           1             4    7     1      -0.4743546336E-05       4    7    1        -0.2706626801E-03      0.6428150076E-03

    ------------------------------------------------
       NWT REQUIRED            4 OUTER ITERATIONS 
       AND A TOTAL OF          6 INNER ITERATIONS.
    ------------------------------------------------

 NO OUTPUT CONTROL FOR STRESS PERIOD   14   TIME STEP   17
 
 SOLVING FOR HEAD 
                                                   Max.-Head-Change                         Max.-Flux-Residual
  Residual-Control   Outer-Iter.   Inner-Iter.     Column Row Layer    Maximum-Head-Change  Column Row Layer    Maximum-Flux-Residual          L2-NORM 
          0                 1           2             4    7     1       0.1780255442E-01       4    7    1         0.9351086788E+00      0.2225888622E+01
          0                 2           2             4    7     1      -0.1731709786E-02       4    7    1        -0.9351131871E-01      0.2225796807E+00
          0                 3           1             4    7     1       0.1179229536E-03       4    7    1         0.6545790870E-02      0.1557975605E-01
          0                 4           1             4    7     1      -0.4692267466E-05       4    7    1        -0.2677232449E-03      0.6371738746E-03

    ------------------------------------------------
       NWT REQUIRED            4 OUTER ITERATIONS 
       AND A TOTAL OF          6 INNER ITERATIONS.
    ------------------------------------------------

 NO OUTPUT CONTROL FOR STRESS PERIOD   14   TIME STEP   18
 
 SOLVING FOR HEAD 
                                                   Max.-Head-Change                         Max.-Flux-Residual
  Residual-Control   Outer-Iter.   Inner-Iter.     Column Row Layer    Maximum-Head-Change  Column Row Layer    Maximum-Flux-Residual          L2-NORM 
          0                 1           2             4    7     1       0.1761097629E-01       4    7    1         0.9249992682E+00      0.2206233214E+01
          0                 2           2             4    7     1      -0.1713074303E-02       4    7    1        -0.9250036721E-01      0.2206147220E+00
          0                 3           1             4    7     1       0.1166539474E-03       4    7    1         0.6475024319E-02      0.1544224550E-01
          0                 4           1             4    7     1      -0.4641772271E-05       4    7    1        -0.2648288776E-03      0.6315539369E-03

    ------------------------------------------------
       NWT REQUIRED            4 OUTER ITERATIONS 
       AND A TOTAL OF          6 INNER ITERATIONS.
    ------------------------------------------------

 NO OUTPUT CONTROL FOR STRESS PERIOD   14   TIME STEP   19
 
 SOLVING FOR HEAD 
                                                   Max.-Head-Change                         Max.-Flux-Residual
  Residual-Control   Outer-Iter.   Inner-Iter.     Column Row Layer    Maximum-Head-Change  Column Row Layer    Maximum-Flux-Residual          L2-NORM 
          0                 1           2             4    7     1       0.1742244517E-01       4    7    1         0.9150514435E+00      0.2186849900E+01
          0                 2           2             4    7     1      -0.1694735216E-02       4    7    1        -0.9150557458E-01      0.2186769996E+00
          0                 3           1             4    7     1       0.1154051257E-03       4    7    1         0.6405388930E-02      0.1530671066E-01
          0                 4           1             4    7     1      -0.4592080781E-05       4    7    1        -0.2619808029E-03      0.6260046615E-03

    ------------------------------------------------
       NWT REQUIRED            4 OUTER ITERATIONS 
       AND A TOTAL OF          6 INNER ITERATIONS.
    ------------------------------------------------

 NO OUTPUT CONTROL FOR STRESS PERIOD   14   TIME STEP   20
 
 SOLVING FOR HEAD 
                                                   Max.-Head-Change                         Max.-Flux-Residual
  Residual-Control   Outer-Iter.   Inner-Iter.     Column Row Layer    Maximum-Head-Change  Column Row Layer    Maximum-Flux-Residual          L2-NORM 
          0                 1           2             4    7     1       0.1723662475E-01       4    7    1         0.9052468864E+00      0.2167733945E+01
          0                 2           2             4    7     1      -0.1676659810E-02       4    7    1        -0.9052510900E-01      0.2167658953E+00
          0                 3           1             4    7     1       0.1141742588E-03       4    7    1         0.6336756400E-02      0.1517290738E-01
          0                 4           1             4    7     1      -0.4543103312E-05       4    7    1        -0.2591737164E-03      0.6205183178E-03

    ------------------------------------------------
       NWT REQUIRED            4 OUTER ITERATIONS 
       AND A TOTAL OF          6 INNER ITERATIONS.
    ------------------------------------------------

 NO OUTPUT CONTROL FOR STRESS PERIOD   14   TIME STEP   21
 
 SOLVING FOR HEAD 
                                                   Max.-Head-Change                         Max.-Flux-Residual
  Residual-Control   Outer-Iter.   Inner-Iter.     Column Row Layer    Maximum-Head-Change  Column Row Layer    Maximum-Flux-Residual          L2-NORM 
          0                 1           2             4    7     1       0.1705373218E-01       4    7    1         0.8955975902E+00      0.2148879909E+01
          0                 2           2             4    7     1      -0.1658869208E-02       4    7    1        -0.8956016974E-01      0.2148808958E+00
          0                 3           1             4    7     1       0.1129627857E-03       4    7    1         0.6269210695E-02      0.1504100522E-01
          0                 4           1             4    7     1      -0.4494897544E-05       4    7    1        -0.2564110912E-03      0.6151519113E-03

    ------------------------------------------------
       NWT REQUIRED            4 OUTER ITERATIONS 
       AND A TOTAL OF          6 INNER ITERATIONS.
    ------------------------------------------------

 NO OUTPUT CONTROL FOR STRESS PERIOD   14   TIME STEP   22
 
 SOLVING FOR HEAD 
                                                   Max.-Head-Change                         Max.-Flux-Residual
  Residual-Control   Outer-Iter.   Inner-Iter.     Column Row Layer    Maximum-Head-Change  Column Row Layer    Maximum-Flux-Residual          L2-NORM 
          0                 1           2             4    7     1       0.1687356675E-01       4    7    1         0.8860927409E+00      0.2130272422E+01
          0                 2           2             4    7     1      -0.1641343884E-02       4    7    1        -0.8860967543E-01      0.2130205867E+00
          0                 3           1             4    7     1       0.1117693775E-03       4    7    1         0.6202676149E-02      0.1491081194E-01
          0                 4           1             4    7     1      -0.4447410747E-05       4    7    1        -0.2536898298E-03      0.6097921660E-03

    ------------------------------------------------
       NWT REQUIRED            4 OUTER ITERATIONS 
       AND A TOTAL OF          6 INNER ITERATIONS.
    ------------------------------------------------

 NO OUTPUT CONTROL FOR STRESS PERIOD   14   TIME STEP   23
 
 SOLVING FOR HEAD 
                                                   Max.-Head-Change                         Max.-Flux-Residual
  Residual-Control   Outer-Iter.   Inner-Iter.     Column Row Layer    Maximum-Head-Change  Column Row Layer    Maximum-Flux-Residual          L2-NORM 
          0                 1           2             4    7     1       0.1669607454E-01       4    7    1         0.8767292887E+00      0.2111924117E+01
          0                 2           2             4    7     1      -0.1624078598E-02       4    7    1        -0.8767332108E-01      0.2111861121E+00
          0                 3           1             4    7     1       0.1105936769E-03       4    7    1         0.6137131407E-02      0.1478244250E-01
          0                 4           1             4    7     1      -0.4400628301E-05       4    7    1        -0.2510090471E-03      0.6045656840E-03

    ------------------------------------------------
       NWT REQUIRED            4 OUTER ITERATIONS 
       AND A TOTAL OF          6 INNER ITERATIONS.
    ------------------------------------------------

 NO OUTPUT CONTROL FOR STRESS PERIOD   14   TIME STEP   24
 
 SOLVING FOR HEAD 
                                                   Max.-Head-Change                         Max.-Flux-Residual
  Residual-Control   Outer-Iter.   Inner-Iter.     Column Row Layer    Maximum-Head-Change  Column Row Layer    Maximum-Flux-Residual          L2-NORM 
          0                 1           2             4    7     1       0.1652133417E-01       4    7    1         0.8675117982E+00      0.2093818783E+01
          0                 2           2             4    7     1      -0.1607080993E-02       4    7    1        -0.8675156314E-01      0.2093759047E+00
          0                 3           1             4    7     1       0.1094362044E-03       4    7    1         0.6072608420E-02      0.1465575847E-01
          0                 4           1             4    7     1      -0.4354571505E-05       4    7    1        -0.2483700443E-03      0.5994135722E-03

    ------------------------------------------------
       NWT REQUIRED            4 OUTER ITERATIONS 
       AND A TOTAL OF          6 INNER ITERATIONS.
    ------------------------------------------------

 NO OUTPUT CONTROL FOR STRESS PERIOD   14   TIME STEP   25
 
 SOLVING FOR HEAD 
                                                   Max.-Head-Change                         Max.-Flux-Residual
  Residual-Control   Outer-Iter.   Inner-Iter.     Column Row Layer    Maximum-Head-Change  Column Row Layer    Maximum-Flux-Residual          L2-NORM 
          0                 1           2             4    7     1       0.1634915108E-01       4    7    1         0.8584296273E+00      0.2075962688E+01
          0                 2           2             4    7     1      -0.1590332144E-02       4    7    1        -0.8584333738E-01      0.2075905846E+00
          0                 3           1             4    7     1       0.1082956710E-03       4    7    1         0.6009032665E-02      0.1453081058E-01
          0                 4           1             4    7     1      -0.4309188435E-05       4    7    1        -0.2457697883E-03      0.5942652347E-03

    ------------------------------------------------
       NWT REQUIRED            4 OUTER ITERATIONS 
       AND A TOTAL OF          6 INNER ITERATIONS.
    ------------------------------------------------

 NO OUTPUT CONTROL FOR STRESS PERIOD   14   TIME STEP   26
 
 SOLVING FOR HEAD 
                                                   Max.-Head-Change                         Max.-Flux-Residual
  Residual-Control   Outer-Iter.   Inner-Iter.     Column Row Layer    Maximum-Head-Change  Column Row Layer    Maximum-Flux-Residual          L2-NORM 
          0                 1           2             4    7     1       0.1617947476E-01       4    7    1         0.8494800468E+00      0.2058330094E+01
          0                 2           2             4    7     1      -0.1573827140E-02       4    7    1        -0.8494837090E-01      0.2058276795E+00
          0                 3           1             4    7     1       0.1071717425E-03       4    7    1         0.5946385063E-02      0.1440746042E-01
          0                 4           1             4    7     1      -0.4264466313E-05       4    7    1        -0.2432074964E-03      0.5892479480E-03

    ------------------------------------------------
       NWT REQUIRED            4 OUTER ITERATIONS 
       AND A TOTAL OF          6 INNER ITERATIONS.
    ------------------------------------------------

 NO OUTPUT CONTROL FOR STRESS PERIOD   14   TIME STEP   27
 
 SOLVING FOR HEAD 
                                                   Max.-Head-Change                         Max.-Flux-Residual
  Residual-Control   Outer-Iter.   Inner-Iter.     Column Row Layer    Maximum-Head-Change  Column Row Layer    Maximum-Flux-Residual          L2-NORM 
          0                 1           2             4    7     1       0.1601238823E-01       4    7    1         0.8406677980E+00      0.2040938899E+01
          0                 2           2             4    7     1      -0.1557574055E-02       4    7    1        -0.8406713778E-01      0.2040887519E+00
          0                 3           1             4    7     1       0.1060649692E-03       4    7    1         0.5884698805E-02      0.1428572553E-01
          0                 4           1             4    7     1      -0.4220426667E-05       4    7    1        -0.2406845369E-03      0.5842341905E-03

    ------------------------------------------------
       NWT REQUIRED            4 OUTER ITERATIONS 
       AND A TOTAL OF          6 INNER ITERATIONS.
    ------------------------------------------------

 NO OUTPUT CONTROL FOR STRESS PERIOD   14   TIME STEP   28
 
 SOLVING FOR HEAD 
                                                   Max.-Head-Change                         Max.-Flux-Residual
  Residual-Control   Outer-Iter.   Inner-Iter.     Column Row Layer    Maximum-Head-Change  Column Row Layer    Maximum-Flux-Residual          L2-NORM 
          0                 1           2             4    7     1       0.1584783436E-01       4    7    1         0.8319898264E+00      0.2023766667E+01
          0                 2           2             4    7     1      -0.1541567333E-02       4    7    1        -0.8319933265E-01      0.2023717834E+00
          0                 3           1             4    7     1       0.1049749718E-03       4    7    1         0.5823952498E-02      0.1416557371E-01
          0                 4           1             4    7     1      -0.4177054531E-05       4    7    1        -0.2381999977E-03      0.5793375972E-03

    ------------------------------------------------
       NWT REQUIRED            4 OUTER ITERATIONS 
       AND A TOTAL OF          6 INNER ITERATIONS.
    ------------------------------------------------

 NO OUTPUT CONTROL FOR STRESS PERIOD   14   TIME STEP   29
 
 SOLVING FOR HEAD 
                                                   Max.-Head-Change                         Max.-Flux-Residual
  Residual-Control   Outer-Iter.   Inner-Iter.     Column Row Layer    Maximum-Head-Change  Column Row Layer    Maximum-Flux-Residual          L2-NORM 
          0                 1           2             4    7     1       0.1568563266E-01       4    7    1         0.8234358095E+00      0.2006831978E+01
          0                 2           2             4    7     1      -0.1525789414E-02       4    7    1        -0.8234392313E-01      0.2006785456E+00
          0                 3           1             4    7     1       0.1039005551E-03       4    7    1         0.5764073868E-02      0.1404709094E-01
          0                 4           1             4    7     1      -0.4134302702E-05       4    7    1        -0.2357509682E-03      0.5744946614E-03

    ------------------------------------------------
       NWT REQUIRED            4 OUTER ITERATIONS 
       AND A TOTAL OF          6 INNER ITERATIONS.
    ------------------------------------------------

 NO OUTPUT CONTROL FOR STRESS PERIOD   14   TIME STEP   30



 STREAM LISTING     PERIOD     14   STEP       30

 LAYER ROW COL. STREAM  RCH.  FLOW INTO     FLOW TO   FLOW OUT OF   OVRLND.     DIRECT     STREAM       STREAM     STREAM     STREAM   STREAMBED  STREAMBED
                SEG.NO.  NO.  STRM. RCH.    AQUIFER    STRM. RCH.    RUNOFF     PRECIP       ET          HEAD       DEPTH      WIDTH   CONDCTNC.   GRADIENT

   1    1    1     1     1    1.9000E+01  2.1427E-01   1.8786E+01  0.000E+00  0.000E+00  0.000E+00  1.09413E+03  1.082E+00  1.166E+01  5.249E-02  1.361E+00
   1    2    2     1     2    1.8786E+01  3.3055E-01   1.8455E+01  0.000E+00  0.000E+00  0.000E+00  1.08914E+03  1.077E+00  1.158E+01  8.107E-02  1.359E+00
   1    3    3     1     3    1.8455E+01  2.8065E-01   1.8175E+01  0.000E+00  0.000E+00  0.000E+00  1.08349E+03  1.072E+00  1.149E+01  6.892E-02  1.357E+00
   1    3    4     1     4    1.8175E+01  2.5740E-01   1.7917E+01  0.000E+00  0.000E+00  0.000E+00  1.07848E+03  1.068E+00  1.140E+01  6.328E-02  1.356E+00
   1    4    5     2     1    1.5917E+01  3.0543E-01   1.5612E+01  0.000E+00  0.000E+00  0.000E+00  1.07285E+03  9.157E-01  1.200E+01  7.800E-02  1.305E+00
   1    5    6     2     2    1.5612E+01  2.3438E-01   1.5378E+01  0.000E+00  0.000E+00  0.000E+00  1.06742E+03  9.063E-01  1.200E+01  6.000E-02  1.302E+00
   1    6    6     2     3    1.5378E+01  2.3388E-01   1.5144E+01  0.000E+00  0.000E+00  0.000E+00  1.06269E+03  8.980E-01  1.200E+01  6.000E-02  1.299E+00
   1    7    6     2     4    1.5144E+01  2.3339E-01   1.4910E+01  0.000E+00  0.000E+00  0.000E+00  1.05797E+03  8.898E-01  1.200E+01  6.000E-02  1.297E+00
   1    8    6     2     5    1.4910E+01  2.3289E-01   1.4677E+01  0.000E+00  0.000E+00  0.000E+00  1.05324E+03  8.814E-01  1.200E+01  6.000E-02  1.294E+00
   1    3    5     3     1    2.0000E+00  2.8252E-01   1.7175E+00  0.000E+00  0.000E+00  0.000E+00  1.07555E+03  1.909E+00  9.636E+00  7.227E-02  1.955E+00
   1    3    6     3     2    1.7175E+00  2.4905E-01   1.4684E+00  0.000E+00  0.000E+00  0.000E+00  1.07264E+03  1.727E+00  8.909E+00  6.682E-02  1.864E+00
   1    3    7     3     3    1.4684E+00  1.9718E-01   1.2712E+00  0.000E+00  0.000E+00  0.000E+00  1.06987E+03  1.555E+00  8.218E+00  5.547E-02  1.777E+00
   1    4    8     3     4    1.2712E+00  2.2567E-01   1.0456E+00  0.000E+00  0.000E+00  0.000E+00  1.06682E+03  1.364E+00  7.455E+00  6.709E-02  1.682E+00
   1    5    8     3     5    1.0456E+00  1.5790E-01   8.8768E-01  0.000E+00  0.000E+00  0.000E+00  1.06362E+03  1.164E+00  6.655E+00  4.991E-02  1.582E+00
   1    6    8     3     6    8.8768E-01  5.5980E-02   8.3170E-01  0.000E+00  0.000E+00  0.000E+00  1.06158E+03  1.036E+00  6.145E+00  1.844E-02  1.518E+00
   1    5   10     4     1    1.0000E+01  9.0919E-02   9.9091E+00  0.000E+00  0.000E+00  0.000E+00  1.07836E+03  6.368E-01  1.000E+01  2.500E-02  1.212E+00
   1    5    9     4     2    9.9091E+00  1.8158E-01   9.7275E+00  0.000E+00  0.000E+00  0.000E+00  1.07154E+03  6.315E-01  1.000E+01  5.000E-02  1.211E+00
   1    6    8     4     3    9.7275E+00  1.2689E-01   9.6006E+00  0.000E+00  0.000E+00  0.000E+00  1.06381E+03  6.256E-01  1.000E+01  3.500E-02  1.209E+00
   1    6    8     5     1    1.0432E+01  2.2686E-01   1.0205E+01  0.000E+00  0.000E+00  0.000E+00  1.05868E+03  6.790E-01  1.542E+01  6.166E-02  1.226E+00
   1    7    7     5     2    1.0205E+01  2.7894E-01   9.9265E+00  0.000E+00  0.000E+00  0.000E+00  1.05417E+03  6.732E-01  1.519E+01  7.594E-02  1.224E+00
   1    8    7     5     3    9.9265E+00  1.9221E-01   9.7343E+00  0.000E+00  0.000E+00  0.000E+00  1.04992E+03  6.676E-01  1.497E+01  5.241E-02  1.223E+00
   1    8    6     5     4    9.7343E+00  1.3577E-01   9.5985E+00  0.000E+00  0.000E+00  0.000E+00  1.04691E+03  6.637E-01  1.482E+01  3.706E-02  1.221E+00
   1    9    6     6     1    2.4276E+01  2.5176E-01   2.4024E+01  0.000E+00  0.000E+00  0.000E+00  1.04392E+03  1.196E+00  1.200E+01  6.000E-02  1.399E+00
   1   10    7     6     2    2.4024E+01  2.5131E-01   2.3773E+01  0.000E+00  0.000E+00  0.000E+00  1.03937E+03  1.188E+00  1.200E+01  6.000E-02  1.396E+00
   1   11    7     6     3    2.3773E+01  2.5086E-01   2.3522E+01  0.000E+00  0.000E+00  0.000E+00  1.03482E+03  1.181E+00  1.200E+01  6.000E-02  1.394E+00
   1   12    7     6     4    2.3522E+01  2.5041E-01   2.3272E+01  0.000E+00  0.000E+00  0.000E+00  1.03026E+03  1.173E+00  1.200E+01  6.000E-02  1.391E+00
   1   13    7     6     5    2.3272E+01 -1.4873E-02   2.3287E+01  0.000E+00  0.000E+00  0.000E+00  1.02708E+03  1.170E+00  1.200E+01  2.400E-01 -2.066E-02
   1   14    9     7     1    1.5000E+02  1.3294E+00   1.4867E+02  0.000E+00  0.000E+00  0.000E+00  1.03987E+03  2.288E+00  5.529E+01  5.593E-01  7.923E-01
   1   13    8     7     2    1.4867E+02  1.8057E+00   1.4686E+02  0.000E+00  0.000E+00  0.000E+00  1.03478E+03  2.279E+00  5.526E+01  6.148E-01  9.791E-01
   1   13    7     7     3    1.4686E+02  1.4236E+00   1.4544E+02  0.000E+00  0.000E+00  0.000E+00  1.02969E+03  2.271E+00  5.522E+01  5.585E-01  8.497E-01
   1   13    6     8     1    1.6873E+02  8.7447E-01   1.6785E+02  0.000E+00  0.000E+00  0.000E+00  1.02482E+03  2.941E+00  4.265E+01  4.346E-01  6.708E-01
   1   13    5     8     2    1.6785E+02  1.4170E-01   1.6771E+02  0.000E+00  0.000E+00  0.000E+00  1.01856E+03  2.938E+00  4.260E+01  4.341E-01  1.088E-01
   1   13    4     8     3    1.6771E+02 -2.5290E+00   1.7024E+02  0.000E+00  0.000E+00  0.000E+00  1.01232E+03  2.946E+00  4.271E+01  4.352E+00 -1.937E-01
   1   13    3     8     4    1.7024E+02 -3.7104E+00   1.7395E+02  0.000E+00  0.000E+00  0.000E+00  1.00609E+03  2.966E+00  4.300E+01  4.382E+00 -2.822E-01
   1   13    2     8     5    1.7395E+02 -2.6055E+00   1.7656E+02  0.000E+00  0.000E+00  0.000E+00  9.99861E+02  2.986E+00  4.330E+01  4.412E+00 -1.968E-01
   1   13    1     8     6    1.7656E+02 -2.0004E+00   1.7856E+02  0.000E+00  0.000E+00  0.000E+00  9.94876E+02  3.001E+00  4.351E+01  2.660E+00 -2.506E-01





UNSATURATED ZONE PACKAGE VOLUMETRIC BUDGET FOR  TIME STEP    30 STRESS PERIOD   14
  ------------------------------------------------------------------------------



     CUMULATIVE VOLUMES      L**3       RATES FOR THIS TIME STEP      L**3/T
     ------------------                 ------------------------

           IN:                                      IN:
           ---                                      ---
        INFILTRATION =   549043426.7034          INFILTRATION =           4.4075

          OUT:                                     OUT:
          ----                                     ----
              UZF ET =   499996455.3492                UZF ET =           0.7250
        UZF RECHARGE =       73224.0000          UZF RECHARGE =       0.0000E+00

            IN - OUT =    48973747.3541              IN - OUT =           3.6825

          STORAGE:                                 STORAGE:
          --------                                 --------
      STORAGE CHANGE =    48973736.1313        STORAGE CHANGE =           3.6825

 PERCENT DISCREPANCY IS DIFFERENCE BETWEEN IN-OUT MINUS CHANGE IN STORAGE
 DIVIDED BY THE AVERAGE OF IN AND OUT TIMES 100

 PERCENT DISCREPANCY =           0.00     PERCENT DISCREPANCY =           0.00






1
  VOLUMETRIC BUDGET FOR AGRICULTURAL FIELDS AT TIME STEP   30, STRESS PERIOD  14
  ------------------------------------------------------------------------------

     CUMULATIVE VOLUMES      L**3       RATES FOR THIS TIME STEP      L**3/T
     ------------------                 ------------------------

           IN:                                      IN:
           ---                                      ---
               AG WELLS  =   398277792.0000                 AG WELLS  =           0.0000
      DIVERSION SEGMENTS =           0.0000        DIVERSION SEGMENTS =           0.0000
           GW IRRIGATION =           0.0000             GW IRRIGATION =           0.0000
           SW IRRIGATION =           0.0000             SW IRRIGATION =           0.0000
        SYSTEM LOSSES GW =           0.0000          SYSTEM LOSSES GW =           0.0000
        SYSTEM LOSSES SW =           0.0000          SYSTEM LOSSES SW =           0.0000

                TOTAL IN =   398277792.0000                  TOTAL IN =           0.0000

          OUT:                                     OUT:
          ----                                     ----
               AG WELLS  =           0.0000                 AG WELLS  =           0.0000
      DIVERSION SEGMENTS =           0.0000        DIVERSION SEGMENTS =           0.0000
           GW IRRIGATION =   398277792.0000             GW IRRIGATION =           0.0000
           SW IRRIGATION =           0.0000             SW IRRIGATION =           0.0000
        SYSTEM LOSSES GW =           0.0000          SYSTEM LOSSES GW =           0.0000
        SYSTEM LOSSES SW =           0.0000          SYSTEM LOSSES SW =           0.0000

               TOTAL OUT =   398277792.0000                 TOTAL OUT =           0.0000

                IN - OUT =           0.0000                  IN - OUT =           0.0000

     PERCENT DISCREPANCY =           0.00         PERCENT DISCREPANCY =           0.00



1
  VOLUMETRIC BUDGET FOR ENTIRE MODEL AT END OF TIME STEP   30, STRESS PERIOD  14
  ------------------------------------------------------------------------------

     CUMULATIVE VOLUMES      L**3       RATES FOR THIS TIME STEP      L**3/T
     ------------------                 ------------------------

           IN:                                      IN:
           ---                                      ---
             STORAGE     =   545619648.0000               STORAGE     =           6.2095
       CONSTANT HEAD     =           0.0000         CONSTANT HEAD     =           0.0000
     HEAD DEP BOUNDS     =     9783309.0000       HEAD DEP BOUNDS     =           0.2853
      STREAM LEAKAGE     =   424082656.0000        STREAM LEAKAGE     =          11.3036
        UZF RECHARGE     =       73223.9531          UZF RECHARGE     =           0.0000
               GW ET     =           0.0000                 GW ET     =           0.0000
     SURFACE LEAKAGE     =           0.0000       SURFACE LEAKAGE     =           0.0000
           AG WELLS      =           0.0000             AG WELLS      =           0.0000

                TOTAL IN =   979558784.0000                  TOTAL IN =          17.7984

          OUT:                                     OUT:
          ----                                     ----
             STORAGE     =   199852464.0000               STORAGE     =           6.6484
       CONSTANT HEAD     =           0.0000         CONSTANT HEAD     =           0.0000
     HEAD DEP BOUNDS     =    10088163.0000       HEAD DEP BOUNDS     =           0.2899
      STREAM LEAKAGE     =   357749696.0000        STREAM LEAKAGE     =          10.8601
        UZF RECHARGE     =           0.0000          UZF RECHARGE     =           0.0000
               GW ET     =    13594306.0000                 GW ET     =           0.0000
     SURFACE LEAKAGE     =           0.0000       SURFACE LEAKAGE     =           0.0000
           AG WELLS      =   398277792.0000             AG WELLS      =           0.0000

               TOTAL OUT =   979562368.0000                 TOTAL OUT =          17.7984

                IN - OUT =       -3584.0000                  IN - OUT =       7.6294E-06

     PERCENT DISCREPANCY =          -0.00         PERCENT DISCREPANCY =           0.00






         TIME SUMMARY AT END OF TIME STEP   30 IN STRESS PERIOD   14
                    SECONDS     MINUTES      HOURS       DAYS        YEARS
                    -----------------------------------------------------------
   TIME STEP LENGTH  87667.      1461.1      24.352      1.0147     2.77799E-03
 STRESS PERIOD TIME 2.63000E+06  43833.      730.56      30.440     8.33397E-02
         TOTAL TIME 3.42763E+07 5.71272E+05  9521.2      396.72      1.0862    
1
1
                            STRESS PERIOD NO.   15, LENGTH =   2630000.    
                            -----------------------------------------------

                              NUMBER OF TIME STEPS =    30

                               MULTIPLIER FOR DELT =     1.000

                            INITIAL TIME STEP SIZE =   87666.66    

 REUSING NON-PARAMETER GHB CELLS FROM LAST STRESS PERIOD

      2 GHB CELLS

 REUSING STREAM SEGMENT DATA FROM LAST STRESS PERIOD



            AREAL INFILTRATION RATE
 READING ON UNIT   19 WITH FORMAT: (10F4.0)            

            1           2           3           4           5           6           7           8           9          10
 ........................................................................................................................
   1   1.2000E-09   0.000       0.000       0.000       0.000       0.000       0.000       0.000       0.000       0.000    
   2   2.1000E-09  2.0000E-09  8.0000E-10  8.5000E-09   0.000       0.000       0.000       0.000       0.000       0.000    
   3   5.0000E-10  1.1000E-09  8.8000E-09  5.5000E-09   0.000       0.000       0.000       0.000       0.000       0.000    
   4   8.5000E-09  1.1000E-09  1.1000E-09  1.1000E-09  2.0000E-09   0.000       0.000       0.000       0.000       0.000    
   5   8.5000E-09  1.1000E-09  1.1000E-09  1.1000E-09  1.1000E-09   0.000       0.000       0.000       0.000       0.000    
   6   8.5000E-09  5.2000E-09  2.1000E-09  1.1000E-09  1.5000E-09   0.000       0.000       0.000       0.000       0.000    
   7   8.5000E-09  5.2000E-09  2.1000E-09  1.2000E-09  2.0000E-09   0.000       0.000       0.000       0.000       0.000    
   8   5.0000E-10  5.2000E-09  2.1000E-09  1.2000E-09  5.0000E-09   0.000       0.000       0.000       0.000       0.000    
   9   5.0000E-10  5.2000E-09  2.1000E-09  1.2000E-09  5.0000E-09   0.000       0.000       0.000       0.000       0.000    
  10   5.0000E-10  5.2000E-09  2.1000E-09  1.2000E-09  5.8000E-09   0.000       0.000       0.000       0.000       0.000    
  11   1.0000E-10  1.1000E-09  1.1000E-09  1.2000E-09  5.0000E-09   0.000       0.000       0.000       0.000       0.000    
  12   1.1000E-09  1.1000E-09  1.1000E-09  1.1000E-09  2.0000E-09   0.000       0.000       0.000       0.000       0.000    
  13   1.1000E-09  2.2000E-09  2.2000E-09  2.1000E-09  1.0000E-09   0.000       0.000       0.000       0.000       0.000    
  14   2.0000E-10  5.5000E-09  5.5000E-09  5.2000E-09  1.0000E-09   0.000       0.000       0.000       0.000       0.000    
  15    0.000      8.8000E-09  8.8000E-09   0.000       0.000       0.000       0.000       0.000       0.000       0.000    

                  ET RATE =  5.000000E-10

 USING ET EXTINCTION DEPTH FROM PREVIOUS STRESS PERIOD. CURRENT PERIOD IS:      15

 USING EXTINCTION WATER CONTENT FROM PREVIOUS STRESS PERIOD. CURRENT PERIOD IS:      15

 USING AIR ENTRY PRESSURE FROM PREVIOUS STRESS PERIOD. CURRENT PERIOD IS:      15

 USING ROOT PRESSURE HEAD FROM PREVIOUS STRESS PERIOD. CURRENT PERIOD IS:      15

 USING ROOT ACTIVITY FROM PREVIOUS STRESS PERIOD. CURRENT PERIOD IS:      15

 PROCESSING AG STRESS PERIOD DATA

 READING AG STRESS PERIOD DATA

 READING IRRIGATION WELL

 END PROCESSING AG STRESS PERIOD DATA OPTIONS
 
 SOLVING FOR HEAD 
                                                   Max.-Head-Change                         Max.-Flux-Residual
  Residual-Control   Outer-Iter.   Inner-Iter.     Column Row Layer    Maximum-Head-Change  Column Row Layer    Maximum-Flux-Residual          L2-NORM 
          0                 1           2             4    7     1       0.1552586286E-01       4    7    1         0.8150111089E+00      0.1990108022E+01
          0                 2           2             4    7     1      -0.1510248057E-02       4    7    1        -0.8150144546E-01      0.1990063044E+00
          0                 3           1             4    7     1       0.1028422475E-03       4    7    1         0.5705100491E-02      0.1392999929E-01
          0                 4           1             4    7     1      -0.4092191674E-05       4    7    1        -0.2333389507E-03      0.5697102469E-03

    ------------------------------------------------
       NWT REQUIRED            4 OUTER ITERATIONS 
       AND A TOTAL OF          6 INNER ITERATIONS.
    ------------------------------------------------

 NO OUTPUT CONTROL FOR STRESS PERIOD   15   TIME STEP    1
 
 SOLVING FOR HEAD 
                                                   Max.-Head-Change                         Max.-Flux-Residual
  Residual-Control   Outer-Iter.   Inner-Iter.     Column Row Layer    Maximum-Head-Change  Column Row Layer    Maximum-Flux-Residual          L2-NORM 
          0                 1           2             4    7     1       0.1536835279E-01       4    7    1         0.8067051385E+00      0.1970965819E+01
          0                 2           2             4    7     1      -0.1494956885E-02       4    7    1        -0.8067084102E-01      0.1971357131E+00
          0                 3           1             4    7     1       0.1018009762E-03       4    7    1         0.5646958221E-02      0.1379947297E-01
          0                 4           1             4    7     1      -0.4050758287E-05       4    7    1        -0.2309609135E-03      0.5644002295E-03

    ------------------------------------------------
       NWT REQUIRED            4 OUTER ITERATIONS 
       AND A TOTAL OF          6 INNER ITERATIONS.
    ------------------------------------------------

 NO OUTPUT CONTROL FOR STRESS PERIOD   15   TIME STEP    2
 
 SOLVING FOR HEAD 
                                                   Max.-Head-Change                         Max.-Flux-Residual
  Residual-Control   Outer-Iter.   Inner-Iter.     Column Row Layer    Maximum-Head-Change  Column Row Layer    Maximum-Flux-Residual          L2-NORM 
          0                 1           2             4    7     1       0.1521308736E-01       4    7    1         0.7985220733E+00      0.1953552291E+01
          0                 2           2             4    7     1      -0.1479823321E-02       4    7    1        -0.7985252742E-01      0.1953550191E+00
          0                 3           1             4    7     1       0.1007704376E-03       4    7    1         0.5589676303E-02      0.1367480790E-01
          0                 4           1             4    7     1      -0.4009752253E-05       4    7    1        -0.2286180888E-03      0.5593025452E-03

    ------------------------------------------------
       NWT REQUIRED            4 OUTER ITERATIONS 
       AND A TOTAL OF          6 INNER ITERATIONS.
    ------------------------------------------------

 NO OUTPUT CONTROL FOR STRESS PERIOD   15   TIME STEP    3
 
 SOLVING FOR HEAD 
                                                   Max.-Head-Change                         Max.-Flux-Residual
  Residual-Control   Outer-Iter.   Inner-Iter.     Column Row Layer    Maximum-Head-Change  Column Row Layer    Maximum-Flux-Residual          L2-NORM 
          0                 1           2             4    7     1       0.1505997908E-01       4    7    1         0.7904512652E+00      0.1937367516E+01
          0                 2           2             4    7     1      -0.1464929957E-02       4    7    1        -0.7904543965E-01      0.1937366658E+00
          0                 3           1             4    7     1       0.9975625607E-04       4    7    1         0.5533180203E-02      0.1356153365E-01

    ------------------------------------------------
       NWT REQUIRED            3 OUTER ITERATIONS 
       AND A TOTAL OF          5 INNER ITERATIONS.
    ------------------------------------------------

 NO OUTPUT CONTROL FOR STRESS PERIOD   15   TIME STEP    4
 
 SOLVING FOR HEAD 
                                                   Max.-Head-Change                         Max.-Flux-Residual
  Residual-Control   Outer-Iter.   Inner-Iter.     Column Row Layer    Maximum-Head-Change  Column Row Layer    Maximum-Flux-Residual          L2-NORM 
          0                 1           2             4    7     1       0.1490917619E-01       4    7    1         0.7825026222E+00      0.1921405858E+01
          0                 2           2             4    7     1      -0.1450260847E-02       4    7    1        -0.7825056856E-01      0.1921406227E+00
          0                 3           1             4    7     1       0.9875734529E-04       4    7    1         0.5477539283E-02      0.1344982006E-01

    ------------------------------------------------
       NWT REQUIRED            3 OUTER ITERATIONS 
       AND A TOTAL OF          5 INNER ITERATIONS.
    ------------------------------------------------

 NO OUTPUT CONTROL FOR STRESS PERIOD   15   TIME STEP    5
 
 SOLVING FOR HEAD 
                                                   Max.-Head-Change                         Max.-Flux-Residual
  Residual-Control   Outer-Iter.   Inner-Iter.     Column Row Layer    Maximum-Head-Change  Column Row Layer    Maximum-Flux-Residual          L2-NORM 
          0                 1           2             4    7     1       0.1476041429E-01       4    7    1         0.7746616095E+00      0.1905648383E+01
          0                 2           2             4    7     1      -0.1435790272E-02       4    7    1        -0.7746646064E-01      0.1905649164E+00
          0                 3           1             4    7     1       0.9777195340E-04       4    7    1         0.5422651750E-02      0.1333953614E-01

    ------------------------------------------------
       NWT REQUIRED            3 OUTER ITERATIONS 
       AND A TOTAL OF          5 INNER ITERATIONS.
    ------------------------------------------------

 NO OUTPUT CONTROL FOR STRESS PERIOD   15   TIME STEP    6
 
 SOLVING FOR HEAD 
                                                   Max.-Head-Change                         Max.-Flux-Residual
  Residual-Control   Outer-Iter.   Inner-Iter.     Column Row Layer    Maximum-Head-Change  Column Row Layer    Maximum-Flux-Residual          L2-NORM 
          0                 1           2             4    7     1       0.1461379280E-01       4    7    1         0.7669337801E+00      0.1890104293E+01
          0                 2           2             4    7     1      -0.1421527903E-02       4    7    1        -0.7669367123E-01      0.1890086130E+00
          0                 3           1             4    7     1       0.9680073978E-04       4    7    1         0.5368556530E-02      0.1323059201E-01

    ------------------------------------------------
       NWT REQUIRED            3 OUTER ITERATIONS 
       AND A TOTAL OF          5 INNER ITERATIONS.
    ------------------------------------------------

 NO OUTPUT CONTROL FOR STRESS PERIOD   15   TIME STEP    7
 
 SOLVING FOR HEAD 
                                                   Max.-Head-Change                         Max.-Flux-Residual
  Residual-Control   Outer-Iter.   Inner-Iter.     Column Row Layer    Maximum-Head-Change  Column Row Layer    Maximum-Flux-Residual          L2-NORM 
          0                 1           2             4    7     1       0.1446913886E-01       4    7    1         0.7593095649E+00      0.1874777275E+01
          0                 2           2             4    7     1      -0.1407456924E-02       4    7    1        -0.7593124337E-01      0.1874778356E+00
          0                 3           1             4    7     1       0.9584255916E-04       4    7    1         0.5315186618E-02      0.1312350792E-01

    ------------------------------------------------
       NWT REQUIRED            3 OUTER ITERATIONS 
       AND A TOTAL OF          5 INNER ITERATIONS.
    ------------------------------------------------

 NO OUTPUT CONTROL FOR STRESS PERIOD   15   TIME STEP    8
 
 SOLVING FOR HEAD 
                                                   Max.-Head-Change                         Max.-Flux-Residual
  Residual-Control   Outer-Iter.   Inner-Iter.     Column Row Layer    Maximum-Head-Change  Column Row Layer    Maximum-Flux-Residual          L2-NORM 
          0                 1           2             4    7     1       0.1432669030E-01       4    7    1         0.7518020874E+00      0.1859653629E+01
          0                 2           2             4    7     1      -0.1393600472E-02       4    7    1        -0.7518048946E-01      0.1859654507E+00
          0                 3           1             4    7     1       0.9489898708E-04       4    7    1         0.5262633882E-02      0.1301756080E-01

    ------------------------------------------------
       NWT REQUIRED            3 OUTER ITERATIONS 
       AND A TOTAL OF          5 INNER ITERATIONS.
    ------------------------------------------------

 NO OUTPUT CONTROL FOR STRESS PERIOD   15   TIME STEP    9
 
 SOLVING FOR HEAD 
                                                   Max.-Head-Change                         Max.-Flux-Residual
  Residual-Control   Outer-Iter.   Inner-Iter.     Column Row Layer    Maximum-Head-Change  Column Row Layer    Maximum-Flux-Residual          L2-NORM 
          0                 1           2             4    7     1       0.1418612927E-01       4    7    1         0.7443942313E+00      0.1844721383E+01
          0                 2           2             4    7     1      -0.1379927627E-02       4    7    1        -0.7443969783E-01      0.1844721902E+00
          0                 3           1             4    7     1       0.9396791775E-04       4    7    1         0.5210778491E-02      0.1291303858E-01

    ------------------------------------------------
       NWT REQUIRED            3 OUTER ITERATIONS 
       AND A TOTAL OF          5 INNER ITERATIONS.
    ------------------------------------------------

 NO OUTPUT CONTROL FOR STRESS PERIOD   15   TIME STEP   10
 
 SOLVING FOR HEAD 
                                                   Max.-Head-Change                         Max.-Flux-Residual
  Residual-Control   Outer-Iter.   Inner-Iter.     Column Row Layer    Maximum-Head-Change  Column Row Layer    Maximum-Flux-Residual          L2-NORM 
          0                 1           2             4    7     1       0.1404768992E-01       4    7    1         0.7370989650E+00      0.1829978443E+01
          0                 2           2             4    7     1      -0.1366461166E-02       4    7    1        -0.7371016532E-01      0.1829978858E+00
          0                 3           1             4    7     1       0.9305090242E-04       4    7    1         0.5159711253E-02      0.1280985179E-01

    ------------------------------------------------
       NWT REQUIRED            3 OUTER ITERATIONS 
       AND A TOTAL OF          5 INNER ITERATIONS.
    ------------------------------------------------

 NO OUTPUT CONTROL FOR STRESS PERIOD   15   TIME STEP   11
 
 SOLVING FOR HEAD 
                                                   Max.-Head-Change                         Max.-Flux-Residual
  Residual-Control   Outer-Iter.   Inner-Iter.     Column Row Layer    Maximum-Head-Change  Column Row Layer    Maximum-Flux-Residual          L2-NORM 
          0                 1           2             4    7     1       0.1391105739E-01       4    7    1         0.7298989786E+00      0.1815424760E+01
          0                 2           2             4    7     1      -0.1353170462E-02       4    7    1        -0.7299016094E-01      0.1815424471E+00
          0                 3           1             4    7     1       0.9214585567E-04       4    7    1         0.5109310982E-02      0.1270796038E-01

    ------------------------------------------------
       NWT REQUIRED            3 OUTER ITERATIONS 
       AND A TOTAL OF          5 INNER ITERATIONS.
    ------------------------------------------------

 NO OUTPUT CONTROL FOR STRESS PERIOD   15   TIME STEP   12
 
 SOLVING FOR HEAD 
                                                   Max.-Head-Change                         Max.-Flux-Residual
  Residual-Control   Outer-Iter.   Inner-Iter.     Column Row Layer    Maximum-Head-Change  Column Row Layer    Maximum-Flux-Residual          L2-NORM 
          0                 1           2             4    7     1       0.1377634135E-01       4    7    1         0.7228000358E+00      0.1801057121E+01
          0                 2           2             4    7     1      -0.1340066181E-02       4    7    1        -0.7228026105E-01      0.1801056306E+00
          0                 3           1             4    7     1       0.9125350359E-04       4    7    1         0.5059618014E-02      0.1260737368E-01

    ------------------------------------------------
       NWT REQUIRED            3 OUTER ITERATIONS 
       AND A TOTAL OF          5 INNER ITERATIONS.
    ------------------------------------------------

 NO OUTPUT CONTROL FOR STRESS PERIOD   15   TIME STEP   13
 
 SOLVING FOR HEAD 
                                                   Max.-Head-Change                         Max.-Flux-Residual
  Residual-Control   Outer-Iter.   Inner-Iter.     Column Row Layer    Maximum-Head-Change  Column Row Layer    Maximum-Flux-Residual          L2-NORM 
          0                 1           2             4    7     1       0.1364363936E-01       4    7    1         0.7158078227E+00      0.1786872509E+01
          0                 2           2             4    7     1      -0.1327157816E-02       4    7    1        -0.7158103430E-01      0.1786870987E+00
          0                 3           1             4    7     1       0.9037449267E-04       4    7    1         0.5010672197E-02      0.1250806870E-01

    ------------------------------------------------
       NWT REQUIRED            3 OUTER ITERATIONS 
       AND A TOTAL OF          5 INNER ITERATIONS.
    ------------------------------------------------

 NO OUTPUT CONTROL FOR STRESS PERIOD   15   TIME STEP   14
 
 SOLVING FOR HEAD 
                                                   Max.-Head-Change                         Max.-Flux-Residual
  Residual-Control   Outer-Iter.   Inner-Iter.     Column Row Layer    Maximum-Head-Change  Column Row Layer    Maximum-Flux-Residual          L2-NORM 
          0                 1           2             4    7     1       0.1351263882E-01       4    7    1         0.7089053080E+00      0.1772862793E+01
          0                 2           2             4    7     1      -0.1314414955E-02       4    7    1        -0.7089077749E-01      0.1772860390E+00
          0                 3           1             4    7     1       0.8950675166E-04       4    7    1         0.4962354219E-02      0.1240998260E-01

    ------------------------------------------------
       NWT REQUIRED            3 OUTER ITERATIONS 
       AND A TOTAL OF          5 INNER ITERATIONS.
    ------------------------------------------------

 NO OUTPUT CONTROL FOR STRESS PERIOD   15   TIME STEP   15
 
 SOLVING FOR HEAD 
                                                   Max.-Head-Change                         Max.-Flux-Residual
  Residual-Control   Outer-Iter.   Inner-Iter.     Column Row Layer    Maximum-Head-Change  Column Row Layer    Maximum-Flux-Residual          L2-NORM 
          0                 1           2             4    7     1       0.1338344522E-01       4    7    1         0.7020983735E+00      0.1759025469E+01
          0                 2           2             4    7     1      -0.1301847864E-02       4    7    1        -0.7021007884E-01      0.1759022559E+00
          0                 3           1             4    7     1       0.8865097980E-04       4    7    1         0.4914705352E-02      0.1231311723E-01

    ------------------------------------------------
       NWT REQUIRED            3 OUTER ITERATIONS 
       AND A TOTAL OF          5 INNER ITERATIONS.
    ------------------------------------------------

 NO OUTPUT CONTROL FOR STRESS PERIOD   15   TIME STEP   16
 
 SOLVING FOR HEAD 
                                                   Max.-Head-Change                         Max.-Flux-Residual
  Residual-Control   Outer-Iter.   Inner-Iter.     Column Row Layer    Maximum-Head-Change  Column Row Layer    Maximum-Flux-Residual          L2-NORM 
          0                 1           2             4    7     1       0.1325615780E-01       4    7    1         0.6953924901E+00      0.1745354419E+01
          0                 2           2             4    7     1      -0.1289466193E-02       4    7    1        -0.6953948542E-01      0.1745350811E+00
          0                 3           1             4    7     1       0.8780783494E-04       4    7    1         0.4867763847E-02      0.1221739434E-01

    ------------------------------------------------
       NWT REQUIRED            3 OUTER ITERATIONS 
       AND A TOTAL OF          5 INNER ITERATIONS.
    ------------------------------------------------

 NO OUTPUT CONTROL FOR STRESS PERIOD   15   TIME STEP   17
 
 SOLVING FOR HEAD 
                                                   Max.-Head-Change                         Max.-Flux-Residual
  Residual-Control   Outer-Iter.   Inner-Iter.     Column Row Layer    Maximum-Head-Change  Column Row Layer    Maximum-Flux-Residual          L2-NORM 
          0                 1           2             4    7     1       0.1313046819E-01       4    7    1         0.6887707106E+00      0.1731848427E+01
          0                 2           2             4    7     1      -0.1277239947E-02       4    7    1        -0.6887730250E-01      0.1731844038E+00
          0                 3           1             4    7     1       0.8697527399E-04       4    7    1         0.4821411075E-02      0.1212286242E-01

    ------------------------------------------------
       NWT REQUIRED            3 OUTER ITERATIONS 
       AND A TOTAL OF          5 INNER ITERATIONS.
    ------------------------------------------------

 NO OUTPUT CONTROL FOR STRESS PERIOD   15   TIME STEP   18
 
 SOLVING FOR HEAD 
                                                   Max.-Head-Change                         Max.-Flux-Residual
  Residual-Control   Outer-Iter.   Inner-Iter.     Column Row Layer    Maximum-Head-Change  Column Row Layer    Maximum-Flux-Residual          L2-NORM 
          0                 1           2             4    7     1       0.1300662411E-01       4    7    1         0.6822465033E+00      0.1718519858E+01
          0                 2           2             4    7     1      -0.1266689256E-02       4    7    1        -0.6832389880E-01      0.1718783850E+00
          0                 3           1             4    7     1       0.8625680884E-04       4    7    1         0.4782672677E-02      0.1203142849E-01

    ------------------------------------------------
       NWT REQUIRED            3 OUTER ITERATIONS 
       AND A TOTAL OF          5 INNER ITERATIONS.
    ------------------------------------------------

 NO OUTPUT CONTROL FOR STRESS PERIOD   15   TIME STEP   19
 
 SOLVING FOR HEAD 
                                                   Max.-Head-Change                         Max.-Flux-Residual
  Residual-Control   Outer-Iter.   Inner-Iter.     Column Row Layer    Maximum-Head-Change  Column Row Layer    Maximum-Flux-Residual          L2-NORM 
          0                 1           2             4    7     1       0.1288046871E-01       4    7    1         0.6757308208E+00      0.1705323722E+01
          0                 2           2             4    7     1      -0.1252921869E-02       4    7    1        -0.6757331766E-01      0.1705318224E+00
          0                 3           1             4    7     1       0.8531930235E-04       4    7    1         0.4730132060E-02      0.1193718442E-01

    ------------------------------------------------
       NWT REQUIRED            3 OUTER ITERATIONS 
       AND A TOTAL OF          5 INNER ITERATIONS.
    ------------------------------------------------

 NO OUTPUT CONTROL FOR STRESS PERIOD   15   TIME STEP   20
 
 SOLVING FOR HEAD 
                                                   Max.-Head-Change                         Max.-Flux-Residual
  Residual-Control   Outer-Iter.   Inner-Iter.     Column Row Layer    Maximum-Head-Change  Column Row Layer    Maximum-Flux-Residual          L2-NORM 
          0                 1           2             4    7     1       0.1275755159E-01       4    7    1         0.6692474817E+00      0.1692267887E+01
          0                 2           2             4    7     1      -0.1240965303E-02       4    7    1        -0.6692497828E-01      0.1692261719E+00
          0                 3           1             4    7     1       0.8450510511E-04       4    7    1         0.4684748316E-02      0.1184578479E-01

    ------------------------------------------------
       NWT REQUIRED            3 OUTER ITERATIONS 
       AND A TOTAL OF          5 INNER ITERATIONS.
    ------------------------------------------------

 NO OUTPUT CONTROL FOR STRESS PERIOD   15   TIME STEP   21
 
 SOLVING FOR HEAD 
                                                   Max.-Head-Change                         Max.-Flux-Residual
  Residual-Control   Outer-Iter.   Inner-Iter.     Column Row Layer    Maximum-Head-Change  Column Row Layer    Maximum-Flux-Residual          L2-NORM 
          0                 1           2             4    7     1       0.1263657161E-01       4    7    1         0.6628670245E+00      0.1679378452E+01
          0                 2           2             4    7     1      -0.1229197173E-02       4    7    1        -0.6628692727E-01      0.1679371536E+00
          0                 3           1             4    7     1       0.8370374018E-04       4    7    1         0.4640084790E-02      0.1175552472E-01

    ------------------------------------------------
       NWT REQUIRED            3 OUTER ITERATIONS 
       AND A TOTAL OF          5 INNER ITERATIONS.
    ------------------------------------------------

 NO OUTPUT CONTROL FOR STRESS PERIOD   15   TIME STEP   22
 
 SOLVING FOR HEAD 
                                                   Max.-Head-Change                         Max.-Flux-Residual
  Residual-Control   Outer-Iter.   Inner-Iter.     Column Row Layer    Maximum-Head-Change  Column Row Layer    Maximum-Flux-Residual          L2-NORM 
          0                 1           2             4    7     1       0.1251747400E-01       4    7    1         0.6565870056E+00      0.1666635426E+01
          0                 2           2             4    7     1      -0.1217612147E-02       4    7    1        -0.6565892024E-01      0.1666628170E+00
          0                 3           1             4    7     1       0.8291484355E-04       4    7    1         0.4596124334E-02      0.1166632890E-01

    ------------------------------------------------
       NWT REQUIRED            3 OUTER ITERATIONS 
       AND A TOTAL OF          5 INNER ITERATIONS.
    ------------------------------------------------

 NO OUTPUT CONTROL FOR STRESS PERIOD   15   TIME STEP   23
 
 SOLVING FOR HEAD 
                                                   Max.-Head-Change                         Max.-Flux-Residual
  Residual-Control   Outer-Iter.   Inner-Iter.     Column Row Layer    Maximum-Head-Change  Column Row Layer    Maximum-Flux-Residual          L2-NORM 
          0                 1           2             4    7     1       0.1239994335E-01       4    7    1         0.6503898538E+00      0.1654047128E+01
          0                 2           2             4    7     1      -0.1206179545E-02       4    7    1        -0.6503920005E-01      0.1654039159E+00
          0                 3           1             4    7     1       0.8213632635E-04       4    7    1         0.4552743944E-02      0.1157819352E-01

    ------------------------------------------------
       NWT REQUIRED            3 OUTER ITERATIONS 
       AND A TOTAL OF          5 INNER ITERATIONS.
    ------------------------------------------------

 NO OUTPUT CONTROL FOR STRESS PERIOD   15   TIME STEP   24
 
 SOLVING FOR HEAD 
                                                   Max.-Head-Change                         Max.-Flux-Residual
  Residual-Control   Outer-Iter.   Inner-Iter.     Column Row Layer    Maximum-Head-Change  Column Row Layer    Maximum-Flux-Residual          L2-NORM 
          0                 1           2             4    7     1       0.1228421723E-01       4    7    1         0.6442886765E+00      0.1641610943E+01
          0                 2           2             4    7     1      -0.1194922477E-02       4    7    1        -0.6442907747E-01      0.1641602503E+00
          0                 3           1             4    7     1       0.8136976233E-04       4    7    1         0.4510035381E-02      0.1149113410E-01

    ------------------------------------------------
       NWT REQUIRED            3 OUTER ITERATIONS 
       AND A TOTAL OF          5 INNER ITERATIONS.
    ------------------------------------------------

 NO OUTPUT CONTROL FOR STRESS PERIOD   15   TIME STEP   25
 
 SOLVING FOR HEAD 
                                                   Max.-Head-Change                         Max.-Flux-Residual
  Residual-Control   Outer-Iter.   Inner-Iter.     Column Row Layer    Maximum-Head-Change  Column Row Layer    Maximum-Flux-Residual          L2-NORM 
          0                 1           2             4    7     1       0.1217011667E-01       4    7    1         0.6382736957E+00      0.1629318403E+01
          0                 2           2             4    7     1      -0.1183823535E-02       4    7    1        -0.6382757469E-01      0.1629308961E+00
          0                 3           1             4    7     1       0.8061396600E-04       4    7    1         0.4467930215E-02      0.1140504178E-01

    ------------------------------------------------
       NWT REQUIRED            3 OUTER ITERATIONS 
       AND A TOTAL OF          5 INNER ITERATIONS.
    ------------------------------------------------

 NO OUTPUT CONTROL FOR STRESS PERIOD   15   TIME STEP   26
 
 SOLVING FOR HEAD 
                                                   Max.-Head-Change                         Max.-Flux-Residual
  Residual-Control   Outer-Iter.   Inner-Iter.     Column Row Layer    Maximum-Head-Change  Column Row Layer    Maximum-Flux-Residual          L2-NORM 
          0                 1           2             4    7     1       0.1205760561E-01       4    7    1         0.6323429972E+00      0.1617173846E+01
          0                 2           2             4    7     1      -0.1172879209E-02       4    7    1        -0.6323450024E-01      0.1617164512E+00
          0                 3           1             4    7     1       0.7986869879E-04       4    7    1         0.4426415033E-02      0.1132006222E-01

    ------------------------------------------------
       NWT REQUIRED            3 OUTER ITERATIONS 
       AND A TOTAL OF          5 INNER ITERATIONS.
    ------------------------------------------------

 NO OUTPUT CONTROL FOR STRESS PERIOD   15   TIME STEP   27
 
 SOLVING FOR HEAD 
                                                   Max.-Head-Change                         Max.-Flux-Residual
  Residual-Control   Outer-Iter.   Inner-Iter.     Column Row Layer    Maximum-Head-Change  Column Row Layer    Maximum-Flux-Residual          L2-NORM 
          0                 1           2             4    7     1       0.1194678248E-01       4    7    1         0.6265020776E+00      0.1605177061E+01
          0                 2           2             4    7     1      -0.1162099074E-02       4    7    1        -0.6265040385E-01      0.1605167289E+00
          0                 3           1             4    7     1       0.7913461226E-04       4    7    1         0.4385528308E-02      0.1123607900E-01

    ------------------------------------------------
       NWT REQUIRED            3 OUTER ITERATIONS 
       AND A TOTAL OF          5 INNER ITERATIONS.
    ------------------------------------------------

 NO OUTPUT CONTROL FOR STRESS PERIOD   15   TIME STEP   28
 
 SOLVING FOR HEAD 
                                                   Max.-Head-Change                         Max.-Flux-Residual
  Residual-Control   Outer-Iter.   Inner-Iter.     Column Row Layer    Maximum-Head-Change  Column Row Layer    Maximum-Flux-Residual          L2-NORM 
          0                 1           2             4    7     1       0.1183759531E-01       4    7    1         0.6207413079E+00      0.1703802526E+01
          0                 2           2             4    7     1      -0.1151478074E-02       4    7    1        -0.6207432243E-01      0.1697822867E+00
          0                 3           1             4    7     1       0.7841136159E-04       4    7    1         0.4345202631E-02      0.1183031057E-01

    ------------------------------------------------
       NWT REQUIRED            3 OUTER ITERATIONS 
       AND A TOTAL OF          5 INNER ITERATIONS.
    ------------------------------------------------

 NO OUTPUT CONTROL FOR STRESS PERIOD   15   TIME STEP   29
 
 SOLVING FOR HEAD 
                                                   Max.-Head-Change                         Max.-Flux-Residual
  Residual-Control   Outer-Iter.   Inner-Iter.     Column Row Layer    Maximum-Head-Change  Column Row Layer    Maximum-Flux-Residual          L2-NORM 
          0                 1           2             4   13     1       0.2955010860E-01       4   13    1         0.1711766887E+01      0.3423701487E+01
          0                 2           2             4   13     1      -0.2822889619E-02       4   13    1        -0.1692831926E+00      0.3010721147E+00
          0                 3           1             4   13     1       0.1881348629E-03       4   13    1         0.1166886380E-01      0.2115298927E-01
          0                 4           1             3   13     1      -0.1264530180E-04       3   13    1        -0.7481833218E-03      0.1106936785E-02

    ------------------------------------------------
       NWT REQUIRED            4 OUTER ITERATIONS 
       AND A TOTAL OF          6 INNER ITERATIONS.
    ------------------------------------------------

 NO OUTPUT CONTROL FOR STRESS PERIOD   15   TIME STEP   30



 STREAM LISTING     PERIOD     15   STEP       30

 LAYER ROW COL. STREAM  RCH.  FLOW INTO     FLOW TO   FLOW OUT OF   OVRLND.     DIRECT     STREAM       STREAM     STREAM     STREAM   STREAMBED  STREAMBED
                SEG.NO.  NO.  STRM. RCH.    AQUIFER    STRM. RCH.    RUNOFF     PRECIP       ET          HEAD       DEPTH      WIDTH   CONDCTNC.   GRADIENT

   1    1    1     1     1    9.8001E+01  4.7086E-01   9.7531E+01  0.000E+00  0.000E+00  0.000E+00  1.09484E+03  1.792E+00  2.184E+01  9.826E-02  1.597E+00
   1    2    2     1     2    9.7531E+01  7.3063E-01   9.6800E+01  0.000E+00  0.000E+00  0.000E+00  1.08985E+03  1.790E+00  2.179E+01  1.525E-01  1.597E+00
   1    3    3     1     3    9.6800E+01  6.2448E-01   9.6176E+01  0.000E+00  0.000E+00  0.000E+00  1.08421E+03  1.787E+00  2.174E+01  1.304E-01  1.596E+00
   1    3    4     1     4    9.6176E+01  5.7618E-01   9.5599E+01  0.000E+00  0.000E+00  0.000E+00  1.07919E+03  1.785E+00  2.170E+01  1.204E-01  1.595E+00
   1    4    5     2     1    9.3599E+01  4.4168E-01   9.3158E+01  0.000E+00  0.000E+00  0.000E+00  1.07460E+03  2.663E+00  1.200E+01  7.800E-02  1.888E+00
   1    5    6     2     2    9.3158E+01  3.3935E-01   9.2818E+01  0.000E+00  0.000E+00  0.000E+00  1.06917E+03  2.656E+00  1.200E+01  6.000E-02  1.885E+00
   1    6    6     2     3    9.2818E+01  3.3900E-01   9.2479E+01  0.000E+00  0.000E+00  0.000E+00  1.06444E+03  2.650E+00  1.200E+01  6.000E-02  1.883E+00
   1    7    6     2     4    9.2479E+01  3.3865E-01   9.2141E+01  0.000E+00  0.000E+00  0.000E+00  1.05972E+03  2.644E+00  1.200E+01  6.000E-02  1.881E+00
   1    8    6     2     5    9.2141E+01  3.3830E-01   9.1802E+01  0.000E+00  0.000E+00  0.000E+00  1.05500E+03  2.638E+00  1.200E+01  6.000E-02  1.879E+00
   1    3    5     3     1    2.0000E+00  2.8252E-01   1.7175E+00  0.000E+00  0.000E+00  0.000E+00  1.07555E+03  1.909E+00  9.636E+00  7.227E-02  1.955E+00
   1    3    6     3     2    1.7175E+00  2.4905E-01   1.4684E+00  0.000E+00  0.000E+00  0.000E+00  1.07264E+03  1.727E+00  8.909E+00  6.682E-02  1.864E+00
   1    3    7     3     3    1.4684E+00  1.9718E-01   1.2712E+00  0.000E+00  0.000E+00  0.000E+00  1.06987E+03  1.555E+00  8.218E+00  5.547E-02  1.777E+00
   1    4    8     3     4    1.2712E+00  2.2567E-01   1.0456E+00  0.000E+00  0.000E+00  0.000E+00  1.06682E+03  1.364E+00  7.455E+00  6.709E-02  1.682E+00
   1    5    8     3     5    1.0456E+00  1.5790E-01   8.8768E-01  0.000E+00  0.000E+00  0.000E+00  1.06362E+03  1.164E+00  6.655E+00  4.991E-02  1.582E+00
   1    6    8     3     6    8.8768E-01  5.5980E-02   8.3170E-01  0.000E+00  0.000E+00  0.000E+00  1.06158E+03  1.036E+00  6.145E+00  1.844E-02  1.518E+00
   1    5   10     4     1    1.0000E+01  9.0919E-02   9.9091E+00  0.000E+00  0.000E+00  0.000E+00  1.07836E+03  6.368E-01  1.000E+01  2.500E-02  1.212E+00
   1    5    9     4     2    9.9091E+00  1.8158E-01   9.7275E+00  0.000E+00  0.000E+00  0.000E+00  1.07154E+03  6.315E-01  1.000E+01  5.000E-02  1.211E+00
   1    6    8     4     3    9.7275E+00  1.2689E-01   9.6006E+00  0.000E+00  0.000E+00  0.000E+00  1.06381E+03  6.256E-01  1.000E+01  3.500E-02  1.209E+00
   1    6    8     5     1    1.0432E+01  2.2686E-01   1.0205E+01  0.000E+00  0.000E+00  0.000E+00  1.05868E+03  6.790E-01  1.542E+01  6.166E-02  1.226E+00
   1    7    7     5     2    1.0205E+01  2.7894E-01   9.9265E+00  0.000E+00  0.000E+00  0.000E+00  1.05417E+03  6.732E-01  1.519E+01  7.594E-02  1.224E+00
   1    8    7     5     3    9.9265E+00  1.9221E-01   9.7343E+00  0.000E+00  0.000E+00  0.000E+00  1.04992E+03  6.676E-01  1.497E+01  5.241E-02  1.223E+00
   1    8    6     5     4    9.7343E+00  1.3577E-01   9.5985E+00  0.000E+00  0.000E+00  0.000E+00  1.04691E+03  6.637E-01  1.482E+01  3.706E-02  1.221E+00
   1    9    6     6     1    1.0140E+02  3.4955E-01   1.0105E+02  0.000E+00  0.000E+00  0.000E+00  1.04555E+03  2.826E+00  1.200E+01  6.000E-02  1.942E+00
   1   10    7     6     2    1.0105E+02  3.4920E-01   1.0070E+02  0.000E+00  0.000E+00  0.000E+00  1.04100E+03  2.820E+00  1.200E+01  6.000E-02  1.940E+00
   1   11    7     6     3    1.0070E+02  3.4885E-01   1.0035E+02  0.000E+00  0.000E+00  0.000E+00  1.03645E+03  2.814E+00  1.200E+01  6.000E-02  1.938E+00
   1   12    7     6     4    1.0035E+02  3.4850E-01   1.0000E+02  0.000E+00  0.000E+00  0.000E+00  1.03190E+03  2.808E+00  1.200E+01  6.000E-02  1.936E+00
   1   13    7     6     5    1.0000E+02  3.8341E-02   9.9966E+01  0.000E+00  0.000E+00  0.000E+00  1.02871E+03  2.805E+00  1.200E+01  2.400E-02  5.325E-01
   1   14    9     7     1    1.5000E+02  1.3295E+00   1.4867E+02  0.000E+00  0.000E+00  0.000E+00  1.03987E+03  2.288E+00  5.529E+01  5.593E-01  7.924E-01
   1   13    8     7     2    1.4867E+02  1.8120E+00   1.4686E+02  0.000E+00  0.000E+00  0.000E+00  1.03478E+03  2.279E+00  5.526E+01  6.148E-01  9.825E-01
   1   13    7     7     3    1.4686E+02  1.4372E+00   1.4542E+02  0.000E+00  0.000E+00  0.000E+00  1.02969E+03  2.271E+00  5.522E+01  5.585E-01  8.578E-01
   1   13    6     8     1    2.4539E+02  1.2428E+00   2.4414E+02  0.000E+00  0.000E+00  0.000E+00  1.02526E+03  3.385E+00  4.908E+01  5.001E-01  8.284E-01
   1   13    5     8     2    2.4414E+02  3.9790E-01   2.4375E+02  0.000E+00  0.000E+00  0.000E+00  1.01901E+03  3.380E+00  4.902E+01  4.995E-01  2.655E-01
   1   13    4     8     3    2.4375E+02 -8.6459E-01   2.4461E+02  0.000E+00  0.000E+00  0.000E+00  1.01276E+03  3.382E+00  4.903E+01  4.997E+00 -5.768E-02
   1   13    3     8     4    2.4461E+02 -2.2709E+00   2.4688E+02  0.000E+00  0.000E+00  0.000E+00  1.00651E+03  3.390E+00  4.915E+01  5.009E+00 -1.511E-01
   1   13    2     8     5    2.4688E+02 -1.0743E+00   2.4796E+02  0.000E+00  0.000E+00  0.000E+00  1.00027E+03  3.398E+00  4.928E+01  5.021E+00 -7.131E-02
   1   13    1     8     6    2.4796E+02 -1.1112E+00   2.4907E+02  0.000E+00  0.000E+00  0.000E+00  9.95279E+02  3.404E+00  4.936E+01  3.018E+00 -1.227E-01





UNSATURATED ZONE PACKAGE VOLUMETRIC BUDGET FOR  TIME STEP    30 STRESS PERIOD   15
  ------------------------------------------------------------------------------



     CUMULATIVE VOLUMES      L**3       RATES FOR THIS TIME STEP      L**3/T
     ------------------                 ------------------------

           IN:                                      IN:
           ---                                      ---
        INFILTRATION =   560635151.2615          INFILTRATION =           4.4075

          OUT:                                     OUT:
          ----                                     ----
              UZF ET =   501903205.2141                UZF ET =           0.7250
        UZF RECHARGE =       82843.4902          UZF RECHARGE =           0.1097

            IN - OUT =    58649102.5571              IN - OUT =           3.5728

          STORAGE:                                 STORAGE:
          --------                                 --------
      STORAGE CHANGE =    58649091.2655        STORAGE CHANGE =           3.5728

 PERCENT DISCREPANCY IS DIFFERENCE BETWEEN IN-OUT MINUS CHANGE IN STORAGE
 DIVIDED BY THE AVERAGE OF IN AND OUT TIMES 100

 PERCENT DISCREPANCY =           0.00     PERCENT DISCREPANCY =           0.00






1
  VOLUMETRIC BUDGET FOR AGRICULTURAL FIELDS AT TIME STEP   30, STRESS PERIOD  15
  ------------------------------------------------------------------------------

     CUMULATIVE VOLUMES      L**3       RATES FOR THIS TIME STEP      L**3/T
     ------------------                 ------------------------

           IN:                                      IN:
           ---                                      ---
               AG WELLS  =   398277792.0000                 AG WELLS  =           0.0000
      DIVERSION SEGMENTS =           0.0000        DIVERSION SEGMENTS =           0.0000
           GW IRRIGATION =           0.0000             GW IRRIGATION =           0.0000
           SW IRRIGATION =           0.0000             SW IRRIGATION =           0.0000
        SYSTEM LOSSES GW =           0.0000          SYSTEM LOSSES GW =           0.0000
        SYSTEM LOSSES SW =           0.0000          SYSTEM LOSSES SW =           0.0000

                TOTAL IN =   398277792.0000                  TOTAL IN =           0.0000

          OUT:                                     OUT:
          ----                                     ----
               AG WELLS  =           0.0000                 AG WELLS  =           0.0000
      DIVERSION SEGMENTS =           0.0000        DIVERSION SEGMENTS =           0.0000
           GW IRRIGATION =   398277792.0000             GW IRRIGATION =           0.0000
           SW IRRIGATION =           0.0000             SW IRRIGATION =           0.0000
        SYSTEM LOSSES GW =           0.0000          SYSTEM LOSSES GW =           0.0000
        SYSTEM LOSSES SW =           0.0000          SYSTEM LOSSES SW =           0.0000

               TOTAL OUT =   398277792.0000                 TOTAL OUT =           0.0000

                IN - OUT =           0.0000                  IN - OUT =           0.0000

     PERCENT DISCREPANCY =           0.00         PERCENT DISCREPANCY =           0.00



1
  VOLUMETRIC BUDGET FOR ENTIRE MODEL AT END OF TIME STEP   30, STRESS PERIOD  15
  ------------------------------------------------------------------------------

     CUMULATIVE VOLUMES      L**3       RATES FOR THIS TIME STEP      L**3/T
     ------------------                 ------------------------

           IN:                                      IN:
           ---                                      ---
             STORAGE     =   559753472.0000               STORAGE     =           3.9781
       CONSTANT HEAD     =           0.0000         CONSTANT HEAD     =           0.0000
     HEAD DEP BOUNDS     =    10533713.0000       HEAD DEP BOUNDS     =           0.2853
      STREAM LEAKAGE     =   454470912.0000        STREAM LEAKAGE     =          14.2545
        UZF RECHARGE     =       82843.4453          UZF RECHARGE     =           0.1097
               GW ET     =           0.0000                 GW ET     =           0.0000
     SURFACE LEAKAGE     =           0.0000       SURFACE LEAKAGE     =           0.0000
           AG WELLS      =           0.0000             AG WELLS      =           0.0000

                TOTAL IN =  1024840896.0000                  TOTAL IN =          18.6276

          OUT:                                     OUT:
          ----                                     ----
             STORAGE     =   216747712.0000               STORAGE     =          13.0161
       CONSTANT HEAD     =           0.0000         CONSTANT HEAD     =           0.0000
     HEAD DEP BOUNDS     =    10850590.0000       HEAD DEP BOUNDS     =           0.2906
      STREAM LEAKAGE     =   385374624.0000        STREAM LEAKAGE     =           5.3210
        UZF RECHARGE     =           0.0000          UZF RECHARGE     =           0.0000
               GW ET     =    13594306.0000                 GW ET     =           0.0000
     SURFACE LEAKAGE     =           0.0000       SURFACE LEAKAGE     =           0.0000
           AG WELLS      =   398277792.0000             AG WELLS      =           0.0000

               TOTAL OUT =  1024845056.0000                 TOTAL OUT =          18.6277

                IN - OUT =       -4160.0000                  IN - OUT =      -8.3923E-05

     PERCENT DISCREPANCY =          -0.00         PERCENT DISCREPANCY =          -0.00






         TIME SUMMARY AT END OF TIME STEP   30 IN STRESS PERIOD   15
                    SECONDS     MINUTES      HOURS       DAYS        YEARS
                    -----------------------------------------------------------
   TIME STEP LENGTH  87667.      1461.1      24.352      1.0147     2.77799E-03
 STRESS PERIOD TIME 2.63000E+06  43833.      730.56      30.440     8.33397E-02
         TOTAL TIME 3.69063E+07 6.15106E+05  10252.      427.16      1.1695    
1
1
                            STRESS PERIOD NO.   16, LENGTH =   2630000.    
                            -----------------------------------------------

                              NUMBER OF TIME STEPS =    30

                               MULTIPLIER FOR DELT =     1.000

                            INITIAL TIME STEP SIZE =   87666.66    

 REUSING NON-PARAMETER GHB CELLS FROM LAST STRESS PERIOD

      2 GHB CELLS

 REUSING STREAM SEGMENT DATA FROM LAST STRESS PERIOD



            AREAL INFILTRATION RATE
 READING ON UNIT   19 WITH FORMAT: (10F4.0)            

            1           2           3           4           5           6           7           8           9          10
 ........................................................................................................................
   1   1.2000E-09   0.000       0.000       0.000       0.000       0.000       0.000       0.000       0.000       0.000    
   2   2.1000E-09  2.0000E-09  8.0000E-10  8.5000E-09   0.000       0.000       0.000       0.000       0.000       0.000    
   3   5.0000E-10  1.1000E-09  8.8000E-09  5.5000E-09   0.000       0.000       0.000       0.000       0.000       0.000    
   4   8.5000E-09  1.1000E-09  1.1000E-09  1.1000E-09  2.0000E-09   0.000       0.000       0.000       0.000       0.000    
   5   8.5000E-09  1.1000E-09  1.1000E-09  1.1000E-09  1.1000E-09   0.000       0.000       0.000       0.000       0.000    
   6   8.5000E-09  5.2000E-09  2.1000E-09  1.1000E-09  1.5000E-09   0.000       0.000       0.000       0.000       0.000    
   7   8.5000E-09  5.2000E-09  2.1000E-09  1.2000E-09  2.0000E-09   0.000       0.000       0.000       0.000       0.000    
   8   5.0000E-10  5.2000E-09  2.1000E-09  1.2000E-09  5.0000E-09   0.000       0.000       0.000       0.000       0.000    
   9   5.0000E-10  5.2000E-09  2.1000E-09  1.2000E-09  5.0000E-09   0.000       0.000       0.000       0.000       0.000    
  10   5.0000E-10  5.2000E-09  2.1000E-09  1.2000E-09  5.8000E-09   0.000       0.000       0.000       0.000       0.000    
  11   1.0000E-10  1.1000E-09  1.1000E-09  1.2000E-09  5.0000E-09   0.000       0.000       0.000       0.000       0.000    
  12   1.1000E-09  1.1000E-09  1.1000E-09  1.1000E-09  2.0000E-09   0.000       0.000       0.000       0.000       0.000    
  13   1.1000E-09  2.2000E-09  2.2000E-09  2.1000E-09  1.0000E-09   0.000       0.000       0.000       0.000       0.000    
  14   2.0000E-10  5.5000E-09  5.5000E-09  5.2000E-09  1.0000E-09   0.000       0.000       0.000       0.000       0.000    
  15    0.000      8.8000E-09  8.8000E-09   0.000       0.000       0.000       0.000       0.000       0.000       0.000    

                  ET RATE =  5.000000E-10

 USING ET EXTINCTION DEPTH FROM PREVIOUS STRESS PERIOD. CURRENT PERIOD IS:      16

 USING EXTINCTION WATER CONTENT FROM PREVIOUS STRESS PERIOD. CURRENT PERIOD IS:      16

 USING AIR ENTRY PRESSURE FROM PREVIOUS STRESS PERIOD. CURRENT PERIOD IS:      16

 USING ROOT PRESSURE HEAD FROM PREVIOUS STRESS PERIOD. CURRENT PERIOD IS:      16

 USING ROOT ACTIVITY FROM PREVIOUS STRESS PERIOD. CURRENT PERIOD IS:      16

 PROCESSING AG STRESS PERIOD DATA

 READING AG STRESS PERIOD DATA

 READING IRRIGATION WELL

 END PROCESSING AG STRESS PERIOD DATA OPTIONS
 
 SOLVING FOR HEAD 
                                                   Max.-Head-Change                         Max.-Flux-Residual
  Residual-Control   Outer-Iter.   Inner-Iter.     Column Row Layer    Maximum-Head-Change  Column Row Layer    Maximum-Flux-Residual          L2-NORM 
          0                 1           2             4   13     1       0.2655269269E-01       4   13    1         0.1537077102E+01      0.3212771787E+01
          0                 2           2             3   13     1       0.3211228556E-02       3   13    1         0.1893444559E+00      0.3395991480E+00
          0                 3           2             3   13     1       0.4044911499E-03       3   13    1         0.2333792015E-01      0.3049378574E-01
          0                 4           1             3   13     1       0.5192570152E-04       3   13    1         0.3025743867E-02      0.3113462120E-02

    ------------------------------------------------
       NWT REQUIRED            4 OUTER ITERATIONS 
       AND A TOTAL OF          7 INNER ITERATIONS.
    ------------------------------------------------

 NO OUTPUT CONTROL FOR STRESS PERIOD   16   TIME STEP    1
 
 SOLVING FOR HEAD 
                                                   Max.-Head-Change                         Max.-Flux-Residual
  Residual-Control   Outer-Iter.   Inner-Iter.     Column Row Layer    Maximum-Head-Change  Column Row Layer    Maximum-Flux-Residual          L2-NORM 
          0                 1           2             2   13     1       0.2431434256E-01       4   13    1         0.1383564090E+01      0.2996952626E+01
          0                 2           2             3   13     1       0.2848767312E-02       3   13    1         0.1680505865E+00      0.3151255670E+00
          0                 3           2             3   13     1       0.3598828359E-03       3   13    1         0.2075999566E-01      0.2784567173E-01
          0                 4           1             3   13     1       0.4634180103E-04       3   13    1         0.2700598152E-02      0.2789405169E-02

    ------------------------------------------------
       NWT REQUIRED            4 OUTER ITERATIONS 
       AND A TOTAL OF          7 INNER ITERATIONS.
    ------------------------------------------------

 NO OUTPUT CONTROL FOR STRESS PERIOD   16   TIME STEP    2
 
 SOLVING FOR HEAD 
                                                   Max.-Head-Change                         Max.-Flux-Residual
  Residual-Control   Outer-Iter.   Inner-Iter.     Column Row Layer    Maximum-Head-Change  Column Row Layer    Maximum-Flux-Residual          L2-NORM 
          0                 1           2             2   13     1       0.2237337499E-01       2   13    1         0.1270593354E+01      0.2807559015E+01
          0                 2           2             3   13     1       0.2552945115E-02       3   13    1         0.1493613726E+00      0.2667510326E+00
          0                 3           2             3   13     1       0.3278513806E-03       3   13    1         0.1898361184E-01      0.2458757247E-01
          0                 4           1             3   13     1       0.4215899734E-04       3   13    1         0.2452088750E-02      0.2529722117E-02

    ------------------------------------------------
       NWT REQUIRED            4 OUTER ITERATIONS 
       AND A TOTAL OF          7 INNER ITERATIONS.
    ------------------------------------------------

 NO OUTPUT CONTROL FOR STRESS PERIOD   16   TIME STEP    3
 
 SOLVING FOR HEAD 
                                                   Max.-Head-Change                         Max.-Flux-Residual
  Residual-Control   Outer-Iter.   Inner-Iter.     Column Row Layer    Maximum-Head-Change  Column Row Layer    Maximum-Flux-Residual          L2-NORM 
          0                 1           2             2   13     1       0.2058451260E-01       2   13    1         0.1169151950E+01      0.2652741190E+01
          0                 2           2             4   13     1       0.2502749334E-02       4   13    1         0.1453467688E+00      0.2907019270E+00
          0                 3           2             4   13     1       0.3167363635E-03       4   13    1         0.1833239629E-01      0.2958882013E-01
          0                 4           1             3   13     1       0.4058381087E-04       3   13    1         0.2338948096E-02      0.3346364868E-02

    ------------------------------------------------
       NWT REQUIRED            4 OUTER ITERATIONS 
       AND A TOTAL OF          7 INNER ITERATIONS.
    ------------------------------------------------

 NO OUTPUT CONTROL FOR STRESS PERIOD   16   TIME STEP    4
 
 SOLVING FOR HEAD 
                                                   Max.-Head-Change                         Max.-Flux-Residual
  Residual-Control   Outer-Iter.   Inner-Iter.     Column Row Layer    Maximum-Head-Change  Column Row Layer    Maximum-Flux-Residual          L2-NORM 
          0                 1           2             2   13     1       0.1893921866E-01       2   13    1         0.1075807237E+01      0.2493900809E+01
          0                 2           2             4   13     1       0.2192388313E-02       4   13    1         0.1273652633E+00      0.2707198474E+00
          0                 3           2             4   13     1       0.2784609146E-03       4   13    1         0.1611024950E-01      0.2684720446E-01
          0                 4           1             3   13     1       0.3613316726E-04       3   13    1         0.2082882191E-02      0.2975804701E-02

    ------------------------------------------------
       NWT REQUIRED            4 OUTER ITERATIONS 
       AND A TOTAL OF          7 INNER ITERATIONS.
    ------------------------------------------------

 NO OUTPUT CONTROL FOR STRESS PERIOD   16   TIME STEP    5
 
 SOLVING FOR HEAD 
                                                   Max.-Head-Change                         Max.-Flux-Residual
  Residual-Control   Outer-Iter.   Inner-Iter.     Column Row Layer    Maximum-Head-Change  Column Row Layer    Maximum-Flux-Residual          L2-NORM 
          0                 1           2             2   13     1       0.1741969686E-01       2   13    1         0.9895705758E+00      0.2357279685E+01
          0                 2           2             4   13     1       0.1921521489E-02       4   13    1         0.1116728422E+00      0.2534661129E+00
          0                 3           2             4   13     1       0.2441158327E-03       4   13    1         0.1411665302E-01      0.2444793269E-01
          0                 4           1             3   13     1       0.3229310637E-04       3   13    1         0.1861873485E-02      0.2645998432E-02

    ------------------------------------------------
       NWT REQUIRED            4 OUTER ITERATIONS 
       AND A TOTAL OF          7 INNER ITERATIONS.
    ------------------------------------------------

 NO OUTPUT CONTROL FOR STRESS PERIOD   16   TIME STEP    6
 
 SOLVING FOR HEAD 
                                                   Max.-Head-Change                         Max.-Flux-Residual
  Residual-Control   Outer-Iter.   Inner-Iter.     Column Row Layer    Maximum-Head-Change  Column Row Layer    Maximum-Flux-Residual          L2-NORM 
          0                 1           2             2   13     1       0.1601734913E-01       2   13    1         0.9099606617E+00      0.2239672007E+01
          0                 2           2             4   13     1       0.1686036651E-02       4   13    1         0.9803092279E-01      0.2386318286E+00
          0                 3           2             3   13     1       0.2157304462E-03       4   13    1         0.1242211181E-01      0.2237202476E-01
          0                 4           1             3   13     1       0.2868267417E-04       3   13    1         0.1653939133E-02      0.2354586002E-02

    ------------------------------------------------
       NWT REQUIRED            4 OUTER ITERATIONS 
       AND A TOTAL OF          7 INNER ITERATIONS.
    ------------------------------------------------

 NO OUTPUT CONTROL FOR STRESS PERIOD   16   TIME STEP    7
 
 SOLVING FOR HEAD 
                                                   Max.-Head-Change                         Max.-Flux-Residual
  Residual-Control   Outer-Iter.   Inner-Iter.     Column Row Layer    Maximum-Head-Change  Column Row Layer    Maximum-Flux-Residual          L2-NORM 
          0                 1           2             2   13     1       0.1472403841E-01       2   13    1         0.8365211848E+00      0.2138319389E+01
          0                 2           2             4   13     1       0.1477311404E-02       4   13    1         0.8593551553E-01      0.2258702237E+00
          0                 3           2             3   13     1       0.1926164830E-03       3   13    1         0.1104216906E-01      0.2059301233E-01
          0                 4           1             3   13     1       0.2565076020E-04       3   13    1         0.1479410554E-02      0.2103338720E-02

    ------------------------------------------------
       NWT REQUIRED            4 OUTER ITERATIONS 
       AND A TOTAL OF          7 INNER ITERATIONS.
    ------------------------------------------------

 NO OUTPUT CONTROL FOR STRESS PERIOD   16   TIME STEP    8
 
 SOLVING FOR HEAD 
                                                   Max.-Head-Change                         Max.-Flux-Residual
  Residual-Control   Outer-Iter.   Inner-Iter.     Column Row Layer    Maximum-Head-Change  Column Row Layer    Maximum-Flux-Residual          L2-NORM 
          0                 1           2             2   13     1       0.1353205903E-01       2   13    1         0.7688197743E+00      0.2050807630E+01
          0                 2           2             4   13     1       0.1297267877E-02       4   13    1         0.7550455881E-01      0.2148914424E+00
          0                 3           2             3   13     1       0.1710753276E-03       3   13    1         0.9806242178E-02      0.1902271518E-01
          0                 4           1             3   13     1       0.2275292075E-04       3   13    1         0.1312522983E-02      0.1870465235E-02

    ------------------------------------------------
       NWT REQUIRED            4 OUTER ITERATIONS 
       AND A TOTAL OF          7 INNER ITERATIONS.
    ------------------------------------------------

 NO OUTPUT CONTROL FOR STRESS PERIOD   16   TIME STEP    9
 
 SOLVING FOR HEAD 
                                                   Max.-Head-Change                         Max.-Flux-Residual
  Residual-Control   Outer-Iter.   Inner-Iter.     Column Row Layer    Maximum-Head-Change  Column Row Layer    Maximum-Flux-Residual          L2-NORM 
          0                 1           2             2   13     1       0.1243398374E-01       2   13    1         0.7064383371E+00      0.1975053395E+01
          0                 2           2             2   13     1      -0.1146590754E-02       2   13    1        -0.6790486269E-01      0.2054606951E+00
          0                 3           2             3   13     1       0.1526001032E-03       3   13    1         0.8746527075E-02      0.1770333391E-01
          0                 4           1             3   13     1       0.2035391515E-04       3   13    1         0.1174368844E-02      0.1676675400E-02

    ------------------------------------------------
       NWT REQUIRED            4 OUTER ITERATIONS 
       AND A TOTAL OF          7 INNER ITERATIONS.
    ------------------------------------------------

 NO OUTPUT CONTROL FOR STRESS PERIOD   16   TIME STEP   10
 
 SOLVING FOR HEAD 
                                                   Max.-Head-Change                         Max.-Flux-Residual
  Residual-Control   Outer-Iter.   Inner-Iter.     Column Row Layer    Maximum-Head-Change  Column Row Layer    Maximum-Flux-Residual          L2-NORM 
          0                 1           2             2   13     1       0.1142313771E-01       2   13    1         0.6490016486E+00      0.1909270249E+01
          0                 2           2             2   13     1      -0.1055010270E-02       2   13    1        -0.6245301783E-01      0.1973796044E+00
          0                 3           2             3   13     1       0.1356857647E-03       3   13    1         0.7775982338E-02      0.1655649638E-01
          0                 4           1             3   13     1       0.1805749285E-04       3   13    1         0.1042052473E-02      0.1497510138E-02

    ------------------------------------------------
       NWT REQUIRED            4 OUTER ITERATIONS 
       AND A TOTAL OF          7 INNER ITERATIONS.
    ------------------------------------------------

 NO OUTPUT CONTROL FOR STRESS PERIOD   16   TIME STEP   11
 
 SOLVING FOR HEAD 
                                                   Max.-Head-Change                         Max.-Flux-Residual
  Residual-Control   Outer-Iter.   Inner-Iter.     Column Row Layer    Maximum-Head-Change  Column Row Layer    Maximum-Flux-Residual          L2-NORM 
          0                 1           2             4    7     1       0.1057696976E-01       2   13    1         0.5961362177E+00      0.1851942669E+01
          0                 2           2             4    7     1      -0.1028852854E-02       2   13    1        -0.5742427967E-01      0.1903567782E+00
          0                 3           2             3   13     1       0.1205027340E-03       3   13    1         0.6904766275E-02      0.1556813747E-01
          0                 4           1             3   13     1       0.1601428408E-04       3   13    1         0.9243068489E-03      0.1340219428E-02

    ------------------------------------------------
       NWT REQUIRED            4 OUTER ITERATIONS 
       AND A TOTAL OF          7 INNER ITERATIONS.
    ------------------------------------------------

 NO OUTPUT CONTROL FOR STRESS PERIOD   16   TIME STEP   12
 
 SOLVING FOR HEAD 
                                                   Max.-Head-Change                         Max.-Flux-Residual
  Residual-Control   Outer-Iter.   Inner-Iter.     Column Row Layer    Maximum-Head-Change  Column Row Layer    Maximum-Flux-Residual          L2-NORM 
          0                 1           2             4    7     1       0.1049055532E-01       4    7    1         0.5495726331E+00      0.1801761944E+01
          0                 2           2             4    7     1      -0.1020447041E-02       4    7    1        -0.5495740271E-01      0.1843070274E+00
          0                 3           1             3   13     1       0.1074566957E-03       3   13    1         0.6156249067E-02      0.1474726035E-01
          0                 4           1             3   13     1       0.1430720418E-04       3   13    1         0.8259294291E-03      0.1209486831E-02

    ------------------------------------------------
       NWT REQUIRED            4 OUTER ITERATIONS 
       AND A TOTAL OF          6 INNER ITERATIONS.
    ------------------------------------------------

 NO OUTPUT CONTROL FOR STRESS PERIOD   16   TIME STEP   13
 
 SOLVING FOR HEAD 
                                                   Max.-Head-Change                         Max.-Flux-Residual
  Residual-Control   Outer-Iter.   Inner-Iter.     Column Row Layer    Maximum-Head-Change  Column Row Layer    Maximum-Flux-Residual          L2-NORM 
          0                 1           2             4    7     1       0.1040533702E-01       4    7    1         0.5450773956E+00      0.1757617572E+01
          0                 2           2             4    7     1      -0.1012157581E-02       4    7    1        -0.5450787605E-01      0.1790948979E+00
          0                 3           1             3   13     1       0.9569234662E-04       3   13    1         0.5481167242E-02      0.1404267596E-01

    ------------------------------------------------
       NWT REQUIRED            3 OUTER ITERATIONS 
       AND A TOTAL OF          5 INNER ITERATIONS.
    ------------------------------------------------

 NO OUTPUT CONTROL FOR STRESS PERIOD   16   TIME STEP   14
 
 SOLVING FOR HEAD 
                                                   Max.-Head-Change                         Max.-Flux-Residual
  Residual-Control   Outer-Iter.   Inner-Iter.     Column Row Layer    Maximum-Head-Change  Column Row Layer    Maximum-Flux-Residual          L2-NORM 
          0                 1           2             4    7     1       0.1032139130E-01       4    7    1         0.5406499306E+00      0.1718619031E+01
          0                 2           2             4    7     1      -0.1003991910E-02       4    7    1        -0.5406512671E-01      0.1745113792E+00
          0                 3           1             3   13     1       0.8511318247E-04       3   13    1         0.4874108143E-02      0.1343628511E-01

    ------------------------------------------------
       NWT REQUIRED            3 OUTER ITERATIONS 
       AND A TOTAL OF          5 INNER ITERATIONS.
    ------------------------------------------------

 NO OUTPUT CONTROL FOR STRESS PERIOD   16   TIME STEP   15
 
 SOLVING FOR HEAD 
                                                   Max.-Head-Change                         Max.-Flux-Residual
  Residual-Control   Outer-Iter.   Inner-Iter.     Column Row Layer    Maximum-Head-Change  Column Row Layer    Maximum-Flux-Residual          L2-NORM 
          0                 1           2             4    7     1       0.1023870766E-01       4    7    1         0.5362900837E+00      0.1683946833E+01
          0                 2           2             4    7     1      -0.9959490057E-03       4    7    1        -0.5362913929E-01      0.1704987519E+00
          0                 3           1             3   13     1       0.7577484835E-04       3   13    1         0.4338274838E-02      0.1292221508E-01

    ------------------------------------------------
       NWT REQUIRED            3 OUTER ITERATIONS 
       AND A TOTAL OF          5 INNER ITERATIONS.
    ------------------------------------------------

 NO OUTPUT CONTROL FOR STRESS PERIOD   16   TIME STEP   16
 
 SOLVING FOR HEAD 
                                                   Max.-Head-Change                         Max.-Flux-Residual
  Residual-Control   Outer-Iter.   Inner-Iter.     Column Row Layer    Maximum-Head-Change  Column Row Layer    Maximum-Flux-Residual          L2-NORM 
          0                 1           2             4    7     1       0.1015711969E-01       4    7    1         0.5319883040E+00      0.1652954774E+01
          0                 2           2             4    7     1      -0.9880126812E-03       4    7    1        -0.5319895864E-01      0.1669658537E+00
          0                 3           1             3   13     1       0.6749692390E-04       3   13    1         0.3863270974E-02      0.1248533551E-01

    ------------------------------------------------
       NWT REQUIRED            3 OUTER ITERATIONS 
       AND A TOTAL OF          5 INNER ITERATIONS.
    ------------------------------------------------

 NO OUTPUT CONTROL FOR STRESS PERIOD   16   TIME STEP   17
 
 SOLVING FOR HEAD 
                                                   Max.-Head-Change                         Max.-Flux-Residual
  Residual-Control   Outer-Iter.   Inner-Iter.     Column Row Layer    Maximum-Head-Change  Column Row Layer    Maximum-Flux-Residual          L2-NORM 
          0                 1           2             4    7     1       0.1007686440E-01       4    7    1         0.5277580722E+00      0.1625093250E+01
          0                 2           2             4    7     1      -0.9802059913E-03       4    7    1        -0.5277593285E-01      0.1638347542E+00
          0                 3           1             4    7     1       0.6674837576E-04       4    7    1         0.3694315726E-02      0.1211131243E-01

    ------------------------------------------------
       NWT REQUIRED            3 OUTER ITERATIONS 
       AND A TOTAL OF          5 INNER ITERATIONS.
    ------------------------------------------------

 NO OUTPUT CONTROL FOR STRESS PERIOD   16   TIME STEP   18
 
 SOLVING FOR HEAD 
                                                   Max.-Head-Change                         Max.-Flux-Residual
  Residual-Control   Outer-Iter.   Inner-Iter.     Column Row Layer    Maximum-Head-Change  Column Row Layer    Maximum-Flux-Residual          L2-NORM 
          0                 1           2             4    7     1       0.9997639061E-02       4    7    1         0.5235821981E+00      0.1599900110E+01
          0                 2           2             4    7     1      -0.9724994891E-03       4    7    1        -0.5235834293E-01      0.1610433872E+00
          0                 3           1             4    7     1       0.6622359171E-04       4    7    1         0.3665084422E-02      0.1179537208E-01

    ------------------------------------------------
       NWT REQUIRED            3 OUTER ITERATIONS 
       AND A TOTAL OF          5 INNER ITERATIONS.
    ------------------------------------------------

 NO OUTPUT CONTROL FOR STRESS PERIOD   16   TIME STEP   19
 
 SOLVING FOR HEAD 
                                                   Max.-Head-Change                         Max.-Flux-Residual
  Residual-Control   Outer-Iter.   Inner-Iter.     Column Row Layer    Maximum-Head-Change  Column Row Layer    Maximum-Flux-Residual          L2-NORM 
          0                 1           2             4    7     1       0.9919551412E-02       4    7    1         0.5194670954E+00      0.1576984782E+01
          0                 2           2             4    7     1      -0.9649036539E-03       4    7    1        -0.5194683020E-01      0.1585500358E+00
          0                 3           1             4    7     1       0.6570634429E-04       4    7    1         0.3636278549E-02      0.1152419094E-01

    ------------------------------------------------
       NWT REQUIRED            3 OUTER ITERATIONS 
       AND A TOTAL OF          5 INNER ITERATIONS.
    ------------------------------------------------

 NO OUTPUT CONTROL FOR STRESS PERIOD   16   TIME STEP   20
 
 SOLVING FOR HEAD 
                                                   Max.-Head-Change                         Max.-Flux-Residual
  Residual-Control   Outer-Iter.   Inner-Iter.     Column Row Layer    Maximum-Head-Change  Column Row Layer    Maximum-Flux-Residual          L2-NORM 
          0                 1           2             4    7     1       0.9842430866E-02       4    7    1         0.5154036098E+00      0.1556018776E+01
          0                 2           2             4    7     1      -0.9574018927E-03       4    7    1        -0.5154047927E-01      0.1562837731E+00
          0                 3           1             4    7     1       0.6519550266E-04       4    7    1         0.3607834004E-02      0.1128404690E-01

    ------------------------------------------------
       NWT REQUIRED            3 OUTER ITERATIONS 
       AND A TOTAL OF          5 INNER ITERATIONS.
    ------------------------------------------------

 NO OUTPUT CONTROL FOR STRESS PERIOD   16   TIME STEP   21
 
 SOLVING FOR HEAD 
                                                   Max.-Head-Change                         Max.-Flux-Residual
  Residual-Control   Outer-Iter.   Inner-Iter.     Column Row Layer    Maximum-Head-Change  Column Row Layer    Maximum-Flux-Residual          L2-NORM 
          0                 1           2             4    7     1       0.9766528458E-02       4    7    1         0.5114050070E+00      0.1536737850E+01
          0                 2           2             4    7     1      -0.9500186235E-03       4    7    1        -0.5114061667E-01      0.1542481164E+00
          0                 3           1             4    7     1       0.6469272970E-04       4    7    1         0.3579843625E-02      0.1107596735E-01

    ------------------------------------------------
       NWT REQUIRED            3 OUTER ITERATIONS 
       AND A TOTAL OF          5 INNER ITERATIONS.
    ------------------------------------------------

 NO OUTPUT CONTROL FOR STRESS PERIOD   16   TIME STEP   22
 
 SOLVING FOR HEAD 
                                                   Max.-Head-Change                         Max.-Flux-Residual
  Residual-Control   Outer-Iter.   Inner-Iter.     Column Row Layer    Maximum-Head-Change  Column Row Layer    Maximum-Flux-Residual          L2-NORM 
          0                 1           2             4    7     1       0.9691675598E-02       4    7    1         0.5074621927E+00      0.1518889973E+01
          0                 2           2             4    7     1      -0.9427374480E-03       4    7    1        -0.5074633299E-01      0.1523246132E+00
          0                 3           1             4    7     1       0.6419690926E-04       4    7    1         0.3552243769E-02      0.1088878945E-01

    ------------------------------------------------
       NWT REQUIRED            3 OUTER ITERATIONS 
       AND A TOTAL OF          5 INNER ITERATIONS.
    ------------------------------------------------

 NO OUTPUT CONTROL FOR STRESS PERIOD   16   TIME STEP   23
 
 SOLVING FOR HEAD 
                                                   Max.-Head-Change                         Max.-Flux-Residual
  Residual-Control   Outer-Iter.   Inner-Iter.     Column Row Layer    Maximum-Head-Change  Column Row Layer    Maximum-Flux-Residual          L2-NORM 
          0                 1           2             4    7     1       0.9617708328E-02       4    7    1         0.5035664252E+00      0.1502279076E+01
          0                 2           2             4    7     1      -0.9355424171E-03       4    7    1        -0.5035675404E-01      0.1505772469E+00
          0                 3           1             4    7     1       0.6370695452E-04       4    7    1         0.3524973252E-02      0.1072450266E-01

    ------------------------------------------------
       NWT REQUIRED            3 OUTER ITERATIONS 
       AND A TOTAL OF          5 INNER ITERATIONS.
    ------------------------------------------------

 NO OUTPUT CONTROL FOR STRESS PERIOD   16   TIME STEP   24
 
 SOLVING FOR HEAD 
                                                   Max.-Head-Change                         Max.-Flux-Residual
  Residual-Control   Outer-Iter.   Inner-Iter.     Column Row Layer    Maximum-Head-Change  Column Row Layer    Maximum-Flux-Residual          L2-NORM 
          0                 1           2             4    7     1       0.9544743447E-02       4    7    1         0.4997239445E+00      0.1486765184E+01
          0                 2           2             4    7     1      -0.9284448923E-03       4    7    1        -0.4997250385E-01      0.1489575449E+00
          0                 3           1             4    7     1       0.6322363989E-04       4    7    1         0.3498075743E-02      0.1057676210E-01

    ------------------------------------------------
       NWT REQUIRED            3 OUTER ITERATIONS 
       AND A TOTAL OF          5 INNER ITERATIONS.
    ------------------------------------------------

 NO OUTPUT CONTROL FOR STRESS PERIOD   16   TIME STEP   25
 
 SOLVING FOR HEAD 
                                                   Max.-Head-Change                         Max.-Flux-Residual
  Residual-Control   Outer-Iter.   Inner-Iter.     Column Row Layer    Maximum-Head-Change  Column Row Layer    Maximum-Flux-Residual          L2-NORM 
          0                 1           2             4    7     1       0.9472754354E-02       4    7    1         0.4959334361E+00      0.1472218272E+01
          0                 2           2             4    7     1      -0.9214422856E-03       4    7    1        -0.4959345093E-01      0.1474488206E+00
          0                 3           1             4    7     1       0.6274678869E-04       4    7    1         0.3471542041E-02      0.1044401375E-01

    ------------------------------------------------
       NWT REQUIRED            3 OUTER ITERATIONS 
       AND A TOTAL OF          5 INNER ITERATIONS.
    ------------------------------------------------

 NO OUTPUT CONTROL FOR STRESS PERIOD   16   TIME STEP   26
 
 SOLVING FOR HEAD 
                                                   Max.-Head-Change                         Max.-Flux-Residual
  Residual-Control   Outer-Iter.   Inner-Iter.     Column Row Layer    Maximum-Head-Change  Column Row Layer    Maximum-Flux-Residual          L2-NORM 
          0                 1           2             4    7     1       0.9401852612E-02       4    7    1         0.4922008917E+00      0.1458517765E+01
          0                 2           2             4    7     1      -0.9145454492E-03       4    7    1        -0.4922019445E-01      0.1460357683E+00
          0                 3           1             4    7     1       0.6227714028E-04       4    7    1         0.3445414104E-02      0.1032270676E-01

    ------------------------------------------------
       NWT REQUIRED            3 OUTER ITERATIONS 
       AND A TOTAL OF          5 INNER ITERATIONS.
    ------------------------------------------------

 NO OUTPUT CONTROL FOR STRESS PERIOD   16   TIME STEP   27
 
 SOLVING FOR HEAD 
                                                   Max.-Head-Change                         Max.-Flux-Residual
  Residual-Control   Outer-Iter.   Inner-Iter.     Column Row Layer    Maximum-Head-Change  Column Row Layer    Maximum-Flux-Residual          L2-NORM 
          0                 1           2             4    7     1       0.9331738795E-02       4    7    1         0.4885099827E+00      0.1445564142E+01
          0                 2           2             4    7     1      -0.9077252578E-03       4    7    1        -0.4885110160E-01      0.1447061372E+00
          0                 3           1             4    7     1       0.6181271100E-04       4    7    1         0.3419577615E-02      0.1021188261E-01

    ------------------------------------------------
       NWT REQUIRED            3 OUTER ITERATIONS 
       AND A TOTAL OF          5 INNER ITERATIONS.
    ------------------------------------------------

 NO OUTPUT CONTROL FOR STRESS PERIOD   16   TIME STEP   28
 
 SOLVING FOR HEAD 
                                                   Max.-Head-Change                         Max.-Flux-Residual
  Residual-Control   Outer-Iter.   Inner-Iter.     Column Row Layer    Maximum-Head-Change  Column Row Layer    Maximum-Flux-Residual          L2-NORM 
          0                 1           2             4    7     1       0.9262530468E-02       4    7    1         0.4848672974E+00      0.1433268320E+01
          0                 2           2             4    7     1      -0.9009931466E-03       4    7    1        -0.4848683116E-01      0.1434493385E+00
          0                 3           1             4    7     1       0.6135427949E-04       4    7    1         0.3394078690E-02      0.1010959174E-01

    ------------------------------------------------
       NWT REQUIRED            3 OUTER ITERATIONS 
       AND A TOTAL OF          5 INNER ITERATIONS.
    ------------------------------------------------

 NO OUTPUT CONTROL FOR STRESS PERIOD   16   TIME STEP   29
 
 SOLVING FOR HEAD 
                                                   Max.-Head-Change                         Max.-Flux-Residual
  Residual-Control   Outer-Iter.   Inner-Iter.     Column Row Layer    Maximum-Head-Change  Column Row Layer    Maximum-Flux-Residual          L2-NORM 
          0                 1           2             4    7     1       0.9194162737E-02       4    7    1         0.4812715602E+00      0.1393822316E+01
          0                 2           2             4    7     1      -0.8943428032E-03       4    7    1        -0.4812725558E-01      0.1402865147E+00
          0                 3           1             4    7     1       0.6090141571E-04       4    7    1         0.3368908401E-02      0.1022590203E-01

    ------------------------------------------------
       NWT REQUIRED            3 OUTER ITERATIONS 
       AND A TOTAL OF          5 INNER ITERATIONS.
    ------------------------------------------------

 NO OUTPUT CONTROL FOR STRESS PERIOD   16   TIME STEP   30



 STREAM LISTING     PERIOD     16   STEP       30

 LAYER ROW COL. STREAM  RCH.  FLOW INTO     FLOW TO   FLOW OUT OF   OVRLND.     DIRECT     STREAM       STREAM     STREAM     STREAM   STREAMBED  STREAMBED
                SEG.NO.  NO.  STRM. RCH.    AQUIFER    STRM. RCH.    RUNOFF     PRECIP       ET          HEAD       DEPTH      WIDTH   CONDCTNC.   GRADIENT

   1    1    1     1     1    8.8455E+01  4.5169E-01   8.8003E+01  0.000E+00  0.000E+00  0.000E+00  1.09480E+03  1.756E+00  2.111E+01  9.498E-02  1.585E+00
   1    2    2     1     2    8.8003E+01  7.0076E-01   8.7302E+01  0.000E+00  0.000E+00  0.000E+00  1.08981E+03  1.753E+00  2.106E+01  1.474E-01  1.584E+00
   1    3    3     1     3    8.7302E+01  5.9885E-01   8.6704E+01  0.000E+00  0.000E+00  0.000E+00  1.08417E+03  1.751E+00  2.101E+01  1.260E-01  1.584E+00
   1    3    4     1     4    8.6704E+01  5.5245E-01   8.6151E+01  0.000E+00  0.000E+00  0.000E+00  1.07916E+03  1.749E+00  2.096E+01  1.163E-01  1.583E+00
   1    4    5     2     1    8.4151E+01  4.2881E-01   8.3722E+01  0.000E+00  0.000E+00  0.000E+00  1.07443E+03  2.498E+00  1.200E+01  7.800E-02  1.833E+00
   1    5    6     2     2    8.3722E+01  3.2945E-01   8.3393E+01  0.000E+00  0.000E+00  0.000E+00  1.06900E+03  2.491E+00  1.200E+01  6.000E-02  1.830E+00
   1    6    6     2     3    8.3393E+01  3.2909E-01   8.3064E+01  0.000E+00  0.000E+00  0.000E+00  1.06428E+03  2.485E+00  1.200E+01  6.000E-02  1.828E+00
   1    7    6     2     4    8.3064E+01  3.2874E-01   8.2735E+01  0.000E+00  0.000E+00  0.000E+00  1.05955E+03  2.479E+00  1.200E+01  6.000E-02  1.826E+00
   1    8    6     2     5    8.2735E+01  3.2839E-01   8.2407E+01  0.000E+00  0.000E+00  0.000E+00  1.05483E+03  2.473E+00  1.200E+01  6.000E-02  1.824E+00
   1    3    5     3     1    2.0000E+00  2.8252E-01   1.7175E+00  0.000E+00  0.000E+00  0.000E+00  1.07555E+03  1.909E+00  9.636E+00  7.227E-02  1.955E+00
   1    3    6     3     2    1.7175E+00  2.4905E-01   1.4684E+00  0.000E+00  0.000E+00  0.000E+00  1.07264E+03  1.727E+00  8.909E+00  6.682E-02  1.864E+00
   1    3    7     3     3    1.4684E+00  1.9718E-01   1.2712E+00  0.000E+00  0.000E+00  0.000E+00  1.06987E+03  1.555E+00  8.218E+00  5.547E-02  1.777E+00
   1    4    8     3     4    1.2712E+00  2.2567E-01   1.0456E+00  0.000E+00  0.000E+00  0.000E+00  1.06682E+03  1.364E+00  7.455E+00  6.709E-02  1.682E+00
   1    5    8     3     5    1.0456E+00  1.5790E-01   8.8768E-01  0.000E+00  0.000E+00  0.000E+00  1.06362E+03  1.164E+00  6.655E+00  4.991E-02  1.582E+00
   1    6    8     3     6    8.8768E-01  5.5980E-02   8.3170E-01  0.000E+00  0.000E+00  0.000E+00  1.06158E+03  1.036E+00  6.145E+00  1.844E-02  1.518E+00
   1    5   10     4     1    1.0000E+01  9.0919E-02   9.9091E+00  0.000E+00  0.000E+00  0.000E+00  1.07836E+03  6.368E-01  1.000E+01  2.500E-02  1.212E+00
   1    5    9     4     2    9.9091E+00  1.8158E-01   9.7275E+00  0.000E+00  0.000E+00  0.000E+00  1.07154E+03  6.315E-01  1.000E+01  5.000E-02  1.211E+00
   1    6    8     4     3    9.7275E+00  1.2689E-01   9.6006E+00  0.000E+00  0.000E+00  0.000E+00  1.06381E+03  6.256E-01  1.000E+01  3.500E-02  1.209E+00
   1    6    8     5     1    1.0432E+01  2.2686E-01   1.0205E+01  0.000E+00  0.000E+00  0.000E+00  1.05868E+03  6.790E-01  1.542E+01  6.166E-02  1.226E+00
   1    7    7     5     2    1.0205E+01  2.7894E-01   9.9265E+00  0.000E+00  0.000E+00  0.000E+00  1.05417E+03  6.732E-01  1.519E+01  7.594E-02  1.224E+00
   1    8    7     5     3    9.9265E+00  1.9221E-01   9.7343E+00  0.000E+00  0.000E+00  0.000E+00  1.04992E+03  6.676E-01  1.497E+01  5.241E-02  1.223E+00
   1    8    6     5     4    9.7343E+00  1.3577E-01   9.5985E+00  0.000E+00  0.000E+00  0.000E+00  1.04691E+03  6.637E-01  1.482E+01  3.706E-02  1.221E+00
   1    9    6     6     1    9.2005E+01  3.3993E-01   9.1665E+01  0.000E+00  0.000E+00  0.000E+00  1.04539E+03  2.665E+00  1.200E+01  6.000E-02  1.888E+00
   1   10    7     6     2    9.1665E+01  3.3957E-01   9.1326E+01  0.000E+00  0.000E+00  0.000E+00  1.04084E+03  2.660E+00  1.200E+01  6.000E-02  1.887E+00
   1   11    7     6     3    9.1326E+01  3.3922E-01   9.0986E+01  0.000E+00  0.000E+00  0.000E+00  1.03629E+03  2.654E+00  1.200E+01  6.000E-02  1.885E+00
   1   12    7     6     4    9.0986E+01  3.3886E-01   9.0648E+01  0.000E+00  0.000E+00  0.000E+00  1.03174E+03  2.648E+00  1.200E+01  6.000E-02  1.883E+00
   1   13    7     6     5    9.0648E+01  3.4366E-02   9.0613E+01  0.000E+00  0.000E+00  0.000E+00  1.02855E+03  2.644E+00  1.200E+01  2.400E-02  4.773E-01
   1   14    9     7     1    1.5000E+02  1.3298E+00   1.4867E+02  0.000E+00  0.000E+00  0.000E+00  1.03987E+03  2.288E+00  5.529E+01  5.593E-01  7.926E-01
   1   13    8     7     2    1.4867E+02  1.8165E+00   1.4685E+02  0.000E+00  0.000E+00  0.000E+00  1.03478E+03  2.279E+00  5.526E+01  6.148E-01  9.849E-01
   1   13    7     7     3    1.4685E+02  1.4344E+00   1.4542E+02  0.000E+00  0.000E+00  0.000E+00  1.02969E+03  2.271E+00  5.522E+01  5.585E-01  8.561E-01
   1   13    6     8     1    2.3603E+02  1.1590E+00   2.3487E+02  0.000E+00  0.000E+00  0.000E+00  1.02521E+03  3.336E+00  4.837E+01  4.929E-01  7.838E-01
   1   13    5     8     2    2.3487E+02  3.1800E-01   2.3456E+02  0.000E+00  0.000E+00  0.000E+00  1.01896E+03  3.332E+00  4.831E+01  4.923E-01  2.153E-01
   1   13    4     8     3    2.3456E+02 -2.2809E+00   2.3684E+02  0.000E+00  0.000E+00  0.000E+00  1.01271E+03  3.337E+00  4.839E+01  4.931E+00 -1.542E-01
   1   13    3     8     4    2.3684E+02 -3.6547E+00   2.4049E+02  0.000E+00  0.000E+00  0.000E+00  1.00648E+03  3.353E+00  4.861E+01  4.954E+00 -2.459E-01
   1   13    2     8     5    2.4049E+02 -2.5667E+00   2.4306E+02  0.000E+00  0.000E+00  0.000E+00  1.00024E+03  3.369E+00  4.885E+01  4.978E+00 -1.719E-01
   1   13    1     8     6    2.4306E+02 -1.8864E+00   2.4494E+02  0.000E+00  0.000E+00  0.000E+00  9.95256E+02  3.381E+00  4.902E+01  2.997E+00 -2.098E-01





UNSATURATED ZONE PACKAGE VOLUMETRIC BUDGET FOR  TIME STEP    30 STRESS PERIOD   16
  ------------------------------------------------------------------------------



     CUMULATIVE VOLUMES      L**3       RATES FOR THIS TIME STEP      L**3/T
     ------------------                 ------------------------

           IN:                                      IN:
           ---                                      ---
        INFILTRATION =   572226875.8196          INFILTRATION =           4.4075

          OUT:                                     OUT:
          ----                                     ----
              UZF ET =   503809955.0865                UZF ET =           0.7250
        UZF RECHARGE =      797698.7981          UZF RECHARGE =           0.0095

            IN - OUT =    67619221.9350              IN - OUT =           3.6730

          STORAGE:                                 STORAGE:
          --------                                 --------
      STORAGE CHANGE =    67620171.7392        STORAGE CHANGE =           3.6730

 PERCENT DISCREPANCY IS DIFFERENCE BETWEEN IN-OUT MINUS CHANGE IN STORAGE
 DIVIDED BY THE AVERAGE OF IN AND OUT TIMES 100

 PERCENT DISCREPANCY =          -0.00     PERCENT DISCREPANCY =           0.00






1
  VOLUMETRIC BUDGET FOR AGRICULTURAL FIELDS AT TIME STEP   30, STRESS PERIOD  16
  ------------------------------------------------------------------------------

     CUMULATIVE VOLUMES      L**3       RATES FOR THIS TIME STEP      L**3/T
     ------------------                 ------------------------

           IN:                                      IN:
           ---                                      ---
               AG WELLS  =   398277792.0000                 AG WELLS  =           0.0000
      DIVERSION SEGMENTS =           0.0000        DIVERSION SEGMENTS =           0.0000
           GW IRRIGATION =           0.0000             GW IRRIGATION =           0.0000
           SW IRRIGATION =           0.0000             SW IRRIGATION =           0.0000
        SYSTEM LOSSES GW =           0.0000          SYSTEM LOSSES GW =           0.0000
        SYSTEM LOSSES SW =           0.0000          SYSTEM LOSSES SW =           0.0000

                TOTAL IN =   398277792.0000                  TOTAL IN =           0.0000

          OUT:                                     OUT:
          ----                                     ----
               AG WELLS  =           0.0000                 AG WELLS  =           0.0000
      DIVERSION SEGMENTS =           0.0000        DIVERSION SEGMENTS =           0.0000
           GW IRRIGATION =   398277792.0000             GW IRRIGATION =           0.0000
           SW IRRIGATION =           0.0000             SW IRRIGATION =           0.0000
        SYSTEM LOSSES GW =           0.0000          SYSTEM LOSSES GW =           0.0000
        SYSTEM LOSSES SW =           0.0000          SYSTEM LOSSES SW =           0.0000

               TOTAL OUT =   398277792.0000                 TOTAL OUT =           0.0000

                IN - OUT =           0.0000                  IN - OUT =           0.0000

     PERCENT DISCREPANCY =           0.00         PERCENT DISCREPANCY =           0.00



1
  VOLUMETRIC BUDGET FOR ENTIRE MODEL AT END OF TIME STEP   30, STRESS PERIOD  16
  ------------------------------------------------------------------------------

     CUMULATIVE VOLUMES      L**3       RATES FOR THIS TIME STEP      L**3/T
     ------------------                 ------------------------

           IN:                                      IN:
           ---                                      ---
             STORAGE     =   568093824.0000               STORAGE     =           3.0636
       CONSTANT HEAD     =           0.0000         CONSTANT HEAD     =           0.0000
     HEAD DEP BOUNDS     =    11284155.0000       HEAD DEP BOUNDS     =           0.2854
      STREAM LEAKAGE     =   491798944.0000        STREAM LEAKAGE     =          13.8994
        UZF RECHARGE     =      797698.6250          UZF RECHARGE     =       9.4598E-03
               GW ET     =           0.0000                 GW ET     =           0.0000
     SURFACE LEAKAGE     =           0.0000       SURFACE LEAKAGE     =           0.0000
           AG WELLS      =           0.0000             AG WELLS      =           0.0000

                TOTAL IN =  1071974656.0000                  TOTAL IN =          17.2577

          OUT:                                     OUT:
          ----                                     ----
             STORAGE     =   240629552.0000               STORAGE     =           6.5711
       CONSTANT HEAD     =           0.0000         CONSTANT HEAD     =           0.0000
     HEAD DEP BOUNDS     =    11630095.0000       HEAD DEP BOUNDS     =           0.2996
      STREAM LEAKAGE     =   407847680.0000        STREAM LEAKAGE     =          10.3887
        UZF RECHARGE     =           0.0000          UZF RECHARGE     =           0.0000
               GW ET     =    13594306.0000                 GW ET     =       1.1200E-12
     SURFACE LEAKAGE     =           0.0000       SURFACE LEAKAGE     =           0.0000
           AG WELLS      =   398277792.0000             AG WELLS      =           0.0000

               TOTAL OUT =  1071979392.0000                 TOTAL OUT =          17.2594

                IN - OUT =       -4736.0000                  IN - OUT =      -1.7033E-03

     PERCENT DISCREPANCY =          -0.00         PERCENT DISCREPANCY =          -0.01






         TIME SUMMARY AT END OF TIME STEP   30 IN STRESS PERIOD   16
                    SECONDS     MINUTES      HOURS       DAYS        YEARS
                    -----------------------------------------------------------
   TIME STEP LENGTH  87667.      1461.1      24.352      1.0147     2.77799E-03
 STRESS PERIOD TIME 2.63000E+06  43833.      730.56      30.440     8.33397E-02
         TOTAL TIME 3.95364E+07 6.58940E+05  10982.      457.60      1.2528    
1
1
                            STRESS PERIOD NO.   17, LENGTH =   2630000.    
                            -----------------------------------------------

                              NUMBER OF TIME STEPS =    30

                               MULTIPLIER FOR DELT =     1.000

                            INITIAL TIME STEP SIZE =   87666.66    

 REUSING NON-PARAMETER GHB CELLS FROM LAST STRESS PERIOD

      2 GHB CELLS

 REUSING STREAM SEGMENT DATA FROM LAST STRESS PERIOD



            AREAL INFILTRATION RATE
 READING ON UNIT   19 WITH FORMAT: (10F4.0)            

            1           2           3           4           5           6           7           8           9          10
 ........................................................................................................................
   1   1.2000E-09   0.000       0.000       0.000       0.000       0.000       0.000       0.000       0.000       0.000    
   2   2.1000E-09  2.0000E-09  8.0000E-10  8.5000E-09   0.000       0.000       0.000       0.000       0.000       0.000    
   3   5.0000E-10  1.1000E-09  8.8000E-09  5.5000E-09   0.000       0.000       0.000       0.000       0.000       0.000    
   4   8.5000E-09  1.1000E-09  1.1000E-09  1.1000E-09  2.0000E-09   0.000       0.000       0.000       0.000       0.000    
   5   8.5000E-09  1.1000E-09  1.1000E-09  1.1000E-09  1.1000E-09   0.000       0.000       0.000       0.000       0.000    
   6   8.5000E-09  5.2000E-09  2.1000E-09  1.1000E-09  1.5000E-09   0.000       0.000       0.000       0.000       0.000    
   7   8.5000E-09  5.2000E-09  2.1000E-09  1.2000E-09  2.0000E-09   0.000       0.000       0.000       0.000       0.000    
   8   5.0000E-10  5.2000E-09  2.1000E-09  1.2000E-09  5.0000E-09   0.000       0.000       0.000       0.000       0.000    
   9   5.0000E-10  5.2000E-09  2.1000E-09  1.2000E-09  5.0000E-09   0.000       0.000       0.000       0.000       0.000    
  10   5.0000E-10  5.2000E-09  2.1000E-09  1.2000E-09  5.8000E-09   0.000       0.000       0.000       0.000       0.000    
  11   1.0000E-10  1.1000E-09  1.1000E-09  1.2000E-09  5.0000E-09   0.000       0.000       0.000       0.000       0.000    
  12   1.1000E-09  1.1000E-09  1.1000E-09  1.1000E-09  2.0000E-09   0.000       0.000       0.000       0.000       0.000    
  13   1.1000E-09  2.2000E-09  2.2000E-09  2.1000E-09  1.0000E-09   0.000       0.000       0.000       0.000       0.000    
  14   2.0000E-10  5.5000E-09  5.5000E-09  5.2000E-09  1.0000E-09   0.000       0.000       0.000       0.000       0.000    
  15    0.000      8.8000E-09  8.8000E-09   0.000       0.000       0.000       0.000       0.000       0.000       0.000    

                  ET RATE =  2.500000E-08

 USING ET EXTINCTION DEPTH FROM PREVIOUS STRESS PERIOD. CURRENT PERIOD IS:      17

 USING EXTINCTION WATER CONTENT FROM PREVIOUS STRESS PERIOD. CURRENT PERIOD IS:      17

 USING AIR ENTRY PRESSURE FROM PREVIOUS STRESS PERIOD. CURRENT PERIOD IS:      17

 USING ROOT PRESSURE HEAD FROM PREVIOUS STRESS PERIOD. CURRENT PERIOD IS:      17

 USING ROOT ACTIVITY FROM PREVIOUS STRESS PERIOD. CURRENT PERIOD IS:      17

 PROCESSING AG STRESS PERIOD DATA

 READING AG STRESS PERIOD DATA

 READING IRRIGATION WELL

 END PROCESSING AG STRESS PERIOD DATA OPTIONS
 
 SOLVING FOR HEAD 
                                                   Max.-Head-Change                         Max.-Flux-Residual
  Residual-Control   Outer-Iter.   Inner-Iter.     Column Row Layer    Maximum-Head-Change  Column Row Layer    Maximum-Flux-Residual          L2-NORM 
          0                 1           2             4    7     1       0.9126557877E-02       4    7    1         0.4777193986E+00      0.1488126743E+01
          0                 2           2             4    7     1      -0.8877668020E-03       4    7    1        -0.4777204499E-01      0.1375372842E+00
          0                 3           1             4    7     1       0.6045345581E-04       4    7    1         0.3344036358E-02      0.9634861537E-02

    ------------------------------------------------
       NWT REQUIRED            3 OUTER ITERATIONS 
       AND A TOTAL OF          5 INNER ITERATIONS.
    ------------------------------------------------

 NO OUTPUT CONTROL FOR STRESS PERIOD   17   TIME STEP    1
 
 SOLVING FOR HEAD 
                                                   Max.-Head-Change                         Max.-Flux-Residual
  Residual-Control   Outer-Iter.   Inner-Iter.     Column Row Layer    Maximum-Head-Change  Column Row Layer    Maximum-Flux-Residual          L2-NORM 
          0                 1           2             4    7     1       0.8979940766E-02       4    7    1         0.4699249243E+00      0.1471424772E+01
          0                 2           2             4    7     1      -0.8939975115E-03       4    7    1        -0.4811429240E-01      0.1473243500E+00
          0                 3           1             5    7     1       0.5156641102E-04       5    7    1         0.2873156817E-02      0.9351253213E-02

    ------------------------------------------------
       NWT REQUIRED            3 OUTER ITERATIONS 
       AND A TOTAL OF          5 INNER ITERATIONS.
    ------------------------------------------------

 NO OUTPUT CONTROL FOR STRESS PERIOD   17   TIME STEP    2
 
 SOLVING FOR HEAD 
                                                   Max.-Head-Change                         Max.-Flux-Residual
  Residual-Control   Outer-Iter.   Inner-Iter.     Column Row Layer    Maximum-Head-Change  Column Row Layer    Maximum-Flux-Residual          L2-NORM 
          0                 1           2             5    7     1       0.7594924411E-02       5    7    1         0.4071574527E+00      0.1272842740E+01
          0                 2           2             5    7     1      -0.7404835202E-03       5    7    1        -0.4078815636E-01      0.1270290125E+00
          0                 3           1             5    7     1       0.4870998178E-04       5    7    1         0.2783577600E-02      0.8464595094E-02

    ------------------------------------------------
       NWT REQUIRED            3 OUTER ITERATIONS 
       AND A TOTAL OF          5 INNER ITERATIONS.
    ------------------------------------------------

 NO OUTPUT CONTROL FOR STRESS PERIOD   17   TIME STEP    3
 
 SOLVING FOR HEAD 
                                                   Max.-Head-Change                         Max.-Flux-Residual
  Residual-Control   Outer-Iter.   Inner-Iter.     Column Row Layer    Maximum-Head-Change  Column Row Layer    Maximum-Flux-Residual          L2-NORM 
          0                 1           2             3   13     1      -0.9168705034E-02       3   13    1        -0.5364847411E+00      0.1271992595E+01
          0                 2           2             3   13     1       0.8752102345E-03       3   13    1         0.5265483611E-01      0.1267300904E+00
          0                 3           1             3   13     1      -0.5803365976E-04       3   13    1        -0.3589862865E-02      0.8423551693E-02

    ------------------------------------------------
       NWT REQUIRED            3 OUTER ITERATIONS 
       AND A TOTAL OF          5 INNER ITERATIONS.
    ------------------------------------------------

 NO OUTPUT CONTROL FOR STRESS PERIOD   17   TIME STEP    4
 
 SOLVING FOR HEAD 
                                                   Max.-Head-Change                         Max.-Flux-Residual
  Residual-Control   Outer-Iter.   Inner-Iter.     Column Row Layer    Maximum-Head-Change  Column Row Layer    Maximum-Flux-Residual          L2-NORM 
          0                 1           2             3   13     1      -0.8178222516E-02       3   13    1        -0.4767915428E+00      0.1260307070E+01
          0                 2           2             3   13     1       0.7760428216E-03       4   13    1         0.4684007924E-01      0.1252279276E+00
          0                 3           1             4   13     1      -0.5199984711E-04       4   13    1        -0.3237792679E-02      0.8493044891E-02

    ------------------------------------------------
       NWT REQUIRED            3 OUTER ITERATIONS 
       AND A TOTAL OF          5 INNER ITERATIONS.
    ------------------------------------------------

 NO OUTPUT CONTROL FOR STRESS PERIOD   17   TIME STEP    5
 
 SOLVING FOR HEAD 
                                                   Max.-Head-Change                         Max.-Flux-Residual
  Residual-Control   Outer-Iter.   Inner-Iter.     Column Row Layer    Maximum-Head-Change  Column Row Layer    Maximum-Flux-Residual          L2-NORM 
          0                 1           2             3   13     1      -0.7299348215E-02       3   13    1        -0.4255180474E+00      0.1163849830E+01
          0                 2           2             3   13     1       0.6927273587E-03       3   13    1         0.4151897410E-01      0.1155136208E+00
          0                 3           1             4   13     1      -0.4587704011E-04       4   13    1        -0.2855776620E-02      0.8006600450E-02

    ------------------------------------------------
       NWT REQUIRED            3 OUTER ITERATIONS 
       AND A TOTAL OF          5 INNER ITERATIONS.
    ------------------------------------------------

 NO OUTPUT CONTROL FOR STRESS PERIOD   17   TIME STEP    6
 
 SOLVING FOR HEAD 
                                                   Max.-Head-Change                         Max.-Flux-Residual
  Residual-Control   Outer-Iter.   Inner-Iter.     Column Row Layer    Maximum-Head-Change  Column Row Layer    Maximum-Flux-Residual          L2-NORM 
          0                 1           2             3    7     1       0.6627890699E-02       3   13    1        -0.3797816242E+00      0.1099331997E+01
          0                 2           2             3    7     1      -0.6447132874E-03       3   13    1         0.3705920114E-01      0.1096193440E+00
          0                 3           1             3    7     1       0.4390248968E-04       4   13    1        -0.2521103879E-02      0.7298591426E-02

    ------------------------------------------------
       NWT REQUIRED            3 OUTER ITERATIONS 
       AND A TOTAL OF          5 INNER ITERATIONS.
    ------------------------------------------------

 NO OUTPUT CONTROL FOR STRESS PERIOD   17   TIME STEP    7
 
 SOLVING FOR HEAD 
                                                   Max.-Head-Change                         Max.-Flux-Residual
  Residual-Control   Outer-Iter.   Inner-Iter.     Column Row Layer    Maximum-Head-Change  Column Row Layer    Maximum-Flux-Residual          L2-NORM 
          0                 1           2             3    7     1       0.6506098337E-02       3   13    1        -0.3389874577E+00      0.1051836739E+01
          0                 2           2             3    7     1      -0.6328663136E-03       3   13    1         0.3308123832E-01      0.1053856869E+00
          0                 3           1             3    7     1       0.4309559097E-04       3   13    1        -0.2237077364E-02      0.7092109137E-02

    ------------------------------------------------
       NWT REQUIRED            3 OUTER ITERATIONS 
       AND A TOTAL OF          5 INNER ITERATIONS.
    ------------------------------------------------

 NO OUTPUT CONTROL FOR STRESS PERIOD   17   TIME STEP    8
 
 SOLVING FOR HEAD 
                                                   Max.-Head-Change                         Max.-Flux-Residual
  Residual-Control   Outer-Iter.   Inner-Iter.     Column Row Layer    Maximum-Head-Change  Column Row Layer    Maximum-Flux-Residual          L2-NORM 
          0                 1           2             3    7     1       0.6385932515E-02       3   13    1        -0.3026071692E+00      0.9964917397E+00
          0                 2           2             3    7     1      -0.6211771787E-03       3   13    1         0.2953687316E-01      0.9910633961E-01
          0                 3           1             3    7     1       0.4229990975E-04       3   13    1        -0.1998880774E-02      0.6888463196E-02

    ------------------------------------------------
       NWT REQUIRED            3 OUTER ITERATIONS 
       AND A TOTAL OF          5 INNER ITERATIONS.
    ------------------------------------------------

 NO OUTPUT CONTROL FOR STRESS PERIOD   17   TIME STEP    9
 
 SOLVING FOR HEAD 
                                                   Max.-Head-Change                         Max.-Flux-Residual
  Residual-Control   Outer-Iter.   Inner-Iter.     Column Row Layer    Maximum-Head-Change  Column Row Layer    Maximum-Flux-Residual          L2-NORM 
          0                 1           2             3    7     1       0.6267460660E-02       3   13    1        -0.2701508179E+00      0.9464094704E+00
          0                 2           2             3    7     1      -0.6096530831E-03       3   13    1         0.2636871868E-01      0.9417602752E-01
          0                 3           1             3    7     1       0.4151515905E-04       3   13    1        -0.1783536631E-02      0.6549908659E-02

    ------------------------------------------------
       NWT REQUIRED            3 OUTER ITERATIONS 
       AND A TOTAL OF          5 INNER ITERATIONS.
    ------------------------------------------------

 NO OUTPUT CONTROL FOR STRESS PERIOD   17   TIME STEP   10
 
 SOLVING FOR HEAD 
                                                   Max.-Head-Change                         Max.-Flux-Residual
  Residual-Control   Outer-Iter.   Inner-Iter.     Column Row Layer    Maximum-Head-Change  Column Row Layer    Maximum-Flux-Residual          L2-NORM 
          0                 1           2             3    7     1       0.6150733473E-02       3   13    1        -0.2412043058E+00      0.9156270932E+00
          0                 2           2             3    7     1      -0.5982986980E-03       3   13    1         0.2354500552E-01      0.9117151440E-01
          0                 3           1             3    7     1       0.4074196475E-04       1    1    1         0.1644359913E-02      0.6346529604E-02

    ------------------------------------------------
       NWT REQUIRED            3 OUTER ITERATIONS 
       AND A TOTAL OF          5 INNER ITERATIONS.
    ------------------------------------------------

 NO OUTPUT CONTROL FOR STRESS PERIOD   17   TIME STEP   11
 
 SOLVING FOR HEAD 
                                                   Max.-Head-Change                         Max.-Flux-Residual
  Residual-Control   Outer-Iter.   Inner-Iter.     Column Row Layer    Maximum-Head-Change  Column Row Layer    Maximum-Flux-Residual          L2-NORM 
          0                 1           2             3    7     1       0.6036028241E-02       1    1    1         0.2346591383E+00      0.8866591477E+00
          0                 2           2             3    7     1      -0.5871409955E-03       1    1    1        -0.2346595252E-01      0.8833799043E-01
          0                 3           1             3    7     1       0.3998216402E-04       1    1    1         0.1642617019E-02      0.6154338050E-02

    ------------------------------------------------
       NWT REQUIRED            3 OUTER ITERATIONS 
       AND A TOTAL OF          5 INNER ITERATIONS.
    ------------------------------------------------

 NO OUTPUT CONTROL FOR STRESS PERIOD   17   TIME STEP   12
 
 SOLVING FOR HEAD 
                                                   Max.-Head-Change                         Max.-Flux-Residual
  Residual-Control   Outer-Iter.   Inner-Iter.     Column Row Layer    Maximum-Head-Change  Column Row Layer    Maximum-Flux-Residual          L2-NORM 
          0                 1           2             3    7     1       0.5923117603E-02       1    1    1         0.2344109912E+00      0.8598913016E+00
          0                 2           2             3    7     1      -0.5761578598E-03       1    1    1        -0.2344113763E-01      0.8571235752E-01
          0                 3           1             3    7     1       0.3923425057E-04       1    1    1         0.1640879977E-02      0.5975142328E-02

    ------------------------------------------------
       NWT REQUIRED            3 OUTER ITERATIONS 
       AND A TOTAL OF          5 INNER ITERATIONS.
    ------------------------------------------------

 NO OUTPUT CONTROL FOR STRESS PERIOD   17   TIME STEP   13
 
 SOLVING FOR HEAD 
                                                   Max.-Head-Change                         Max.-Flux-Residual
  Residual-Control   Outer-Iter.   Inner-Iter.     Column Row Layer    Maximum-Head-Change  Column Row Layer    Maximum-Flux-Residual          L2-NORM 
          0                 1           2             3    7     1       0.5812019409E-02       1    1    1         0.2341636780E+00      0.8352845409E+00
          0                 2           2             3    7     1      -0.5653510267E-03       1    1    1        -0.2341640615E-01      0.8329630475E-01
          0                 3           1             3    7     1       0.3849834308E-04       1    1    1         0.1639148761E-02      0.5809858398E-02

    ------------------------------------------------
       NWT REQUIRED            3 OUTER ITERATIONS 
       AND A TOTAL OF          5 INNER ITERATIONS.
    ------------------------------------------------

 NO OUTPUT CONTROL FOR STRESS PERIOD   17   TIME STEP   14
 
 SOLVING FOR HEAD 
                                                   Max.-Head-Change                         Max.-Flux-Residual
  Residual-Control   Outer-Iter.   Inner-Iter.     Column Row Layer    Maximum-Head-Change  Column Row Layer    Maximum-Flux-Residual          L2-NORM 
          0                 1           2             3    7     1       0.5702986558E-02       1    1    1         0.2339159880E+00      0.8127116280E+00
          0                 2           2             3    7     1      -0.5547450962E-03       1    1    1        -0.2339163699E-01      0.8107620713E-01
          0                 3           1             3    7     1       0.3777611672E-04       1    1    1         0.1637414930E-02      0.5657718028E-02

    ------------------------------------------------
       NWT REQUIRED            3 OUTER ITERATIONS 
       AND A TOTAL OF          5 INNER ITERATIONS.
    ------------------------------------------------

 NO OUTPUT CONTROL FOR STRESS PERIOD   17   TIME STEP   15
 
 SOLVING FOR HEAD 
                                                   Max.-Head-Change                         Max.-Flux-Residual
  Residual-Control   Outer-Iter.   Inner-Iter.     Column Row Layer    Maximum-Head-Change  Column Row Layer    Maximum-Flux-Residual          L2-NORM 
          0                 1           2             3    7     1       0.5595770581E-02       1    1    1         0.2336703295E+00      0.7919732964E+00
          0                 2           2             3    7     1      -0.5443158990E-03       1    1    1        -0.2336707097E-01      0.7903402997E-01
          0                 3           1             3    7     1       0.3706592461E-04       1    1    1         0.1635695305E-02      0.5517723047E-02

    ------------------------------------------------
       NWT REQUIRED            3 OUTER ITERATIONS 
       AND A TOTAL OF          5 INNER ITERATIONS.
    ------------------------------------------------

 NO OUTPUT CONTROL FOR STRESS PERIOD   17   TIME STEP   16
 
 SOLVING FOR HEAD 
                                                   Max.-Head-Change                         Max.-Flux-Residual
  Residual-Control   Outer-Iter.   Inner-Iter.     Column Row Layer    Maximum-Head-Change  Column Row Layer    Maximum-Flux-Residual          L2-NORM 
          0                 1           2             3    7     1       0.5490370578E-02       1    1    1         0.2334242847E+00      0.7728910081E+00
          0                 2           2             3    7     1      -0.5340633471E-03       1    1    1        -0.2334246633E-01      0.7715143878E-01
          0                 3           1             3    7     1       0.3636776224E-04       1    1    1         0.1633972980E-02      0.5388058837E-02

    ------------------------------------------------
       NWT REQUIRED            3 OUTER ITERATIONS 
       AND A TOTAL OF          5 INNER ITERATIONS.
    ------------------------------------------------

 NO OUTPUT CONTROL FOR STRESS PERIOD   17   TIME STEP   17
 
 SOLVING FOR HEAD 
                                                   Max.-Head-Change                         Max.-Flux-Residual
  Residual-Control   Outer-Iter.   Inner-Iter.     Column Row Layer    Maximum-Head-Change  Column Row Layer    Maximum-Flux-Residual          L2-NORM 
          0                 1           2             3    7     1       0.5387026103E-02       1    1    1         0.2331802636E+00      0.7552946149E+00
          0                 2           2             3    7     1      -0.5240107436E-03       1    1    1        -0.2331806408E-01      0.7541377085E-01
          0                 3           1             3    7     1       0.3568321581E-04       1    1    1         0.1632264846E-02      0.5268148860E-02

    ------------------------------------------------
       NWT REQUIRED            3 OUTER ITERATIONS 
       AND A TOTAL OF          5 INNER ITERATIONS.
    ------------------------------------------------

 NO OUTPUT CONTROL FOR STRESS PERIOD   17   TIME STEP   18
 
 SOLVING FOR HEAD 
                                                   Max.-Head-Change                         Max.-Flux-Residual
  Residual-Control   Outer-Iter.   Inner-Iter.     Column Row Layer    Maximum-Head-Change  Column Row Layer    Maximum-Flux-Residual          L2-NORM 
          0                 1           2             3    7     1       0.5285476352E-02       1    1    1         0.2329358470E+00      0.7390182428E+00
          0                 2           2             3    7     1      -0.5101043445E-03       1    1    1        -0.2329362225E-01      0.7376465965E-01
          0                 3           1             3    7     1       0.3473622877E-04       1    1    1         0.1630553900E-02      0.5154748386E-02

    ------------------------------------------------
       NWT REQUIRED            3 OUTER ITERATIONS 
       AND A TOTAL OF          5 INNER ITERATIONS.
    ------------------------------------------------

 NO OUTPUT CONTROL FOR STRESS PERIOD   17   TIME STEP   19
 
 SOLVING FOR HEAD 
                                                   Max.-Head-Change                         Max.-Flux-Residual
  Residual-Control   Outer-Iter.   Inner-Iter.     Column Row Layer    Maximum-Head-Change  Column Row Layer    Maximum-Flux-Residual          L2-NORM 
          0                 1           2             3    7     1       0.5197654637E-02       1    1    1         0.2326934444E+00      0.7239496744E+00
          0                 2           2             3    7     1      -0.5055909720E-03       1    1    1        -0.2326938183E-01      0.7231348837E-01
          0                 3           1             3    7     1       0.3442888391E-04       1    1    1         0.1628857080E-02      0.5054635613E-02

    ------------------------------------------------
       NWT REQUIRED            3 OUTER ITERATIONS 
       AND A TOTAL OF          5 INNER ITERATIONS.
    ------------------------------------------------

 NO OUTPUT CONTROL FOR STRESS PERIOD   17   TIME STEP   20
 
 SOLVING FOR HEAD 
                                                   Max.-Head-Change                         Max.-Flux-Residual
  Residual-Control   Outer-Iter.   Inner-Iter.     Column Row Layer    Maximum-Head-Change  Column Row Layer    Maximum-Flux-Residual          L2-NORM 
          0                 1           2             3    7     1       0.5107091088E-02       1    1    1         0.2324506386E+00      0.7099747370E+00
          0                 2           2             3    7     1      -0.4967815753E-03       1    1    1        -0.2324510109E-01      0.7092871837E-01
          0                 3           1             3    7     1       0.3382899563E-04       1    1    1         0.1627157431E-02      0.4957756014E-02

    ------------------------------------------------
       NWT REQUIRED            3 OUTER ITERATIONS 
       AND A TOTAL OF          5 INNER ITERATIONS.
    ------------------------------------------------

 NO OUTPUT CONTROL FOR STRESS PERIOD   17   TIME STEP   21
 
 SOLVING FOR HEAD 
                                                   Max.-Head-Change                         Max.-Flux-Residual
  Residual-Control   Outer-Iter.   Inner-Iter.     Column Row Layer    Maximum-Head-Change  Column Row Layer    Maximum-Flux-Residual          L2-NORM 
          0                 1           2             3    7     1       0.5018412063E-02       1    1    1         0.2322086324E+00      0.6969422464E+00
          0                 2           2             3    7     1      -0.4881554933E-03       1    1    1        -0.2322090032E-01      0.6963643741E-01
          0                 3           1             3    7     1       0.3324159126E-04       1    1    1         0.1625463372E-02      0.4869287370E-02

    ------------------------------------------------
       NWT REQUIRED            3 OUTER ITERATIONS 
       AND A TOTAL OF          5 INNER ITERATIONS.
    ------------------------------------------------

 NO OUTPUT CONTROL FOR STRESS PERIOD   17   TIME STEP   22
 
 SOLVING FOR HEAD 
                                                   Max.-Head-Change                         Max.-Flux-Residual
  Residual-Control   Outer-Iter.   Inner-Iter.     Column Row Layer    Maximum-Head-Change  Column Row Layer    Maximum-Flux-Residual          L2-NORM 
          0                 1           2             3    7     1       0.4930863214E-02       1    1    1         0.2319686275E+00      0.6847421455E+00
          0                 2           2             3    7     1      -0.4796393461E-03       1    1    1        -0.2319689966E-01      0.6842574871E-01
          0                 3           1             3    7     1       0.3266167205E-04       1    1    1         0.1623783322E-02      0.4785413204E-02

    ------------------------------------------------
       NWT REQUIRED            3 OUTER ITERATIONS 
       AND A TOTAL OF          5 INNER ITERATIONS.
    ------------------------------------------------

 NO OUTPUT CONTROL FOR STRESS PERIOD   17   TIME STEP   23
 
 SOLVING FOR HEAD 
                                                   Max.-Head-Change                         Max.-Flux-Residual
  Residual-Control   Outer-Iter.   Inner-Iter.     Column Row Layer    Maximum-Head-Change  Column Row Layer    Maximum-Flux-Residual          L2-NORM 
          0                 1           2             3    7     1       0.4845177446E-02       1    1    1         0.2317282059E+00      0.6733154155E+00
          0                 2           2             3    7     1      -0.4713044277E-03       1    1    1        -0.2317285736E-01      0.6729067538E-01
          0                 3           1             3    7     1       0.3209409463E-04       1    1    1         0.1622100375E-02      0.4706610241E-02

    ------------------------------------------------
       NWT REQUIRED            3 OUTER ITERATIONS 
       AND A TOTAL OF          5 INNER ITERATIONS.
    ------------------------------------------------

 NO OUTPUT CONTROL FOR STRESS PERIOD   17   TIME STEP   24
 
 SOLVING FOR HEAD 
                                                   Max.-Head-Change                         Max.-Flux-Residual
  Residual-Control   Outer-Iter.   Inner-Iter.     Column Row Layer    Maximum-Head-Change  Column Row Layer    Maximum-Flux-Residual          L2-NORM 
          0                 1           2             3    7     1       0.4760843843E-02       1    1    1         0.2314885724E+00      0.6625676586E+00
          0                 2           2             3    7     1      -0.4631010392E-03       1    1    1        -0.2314889385E-01      0.6622217578E-01
          0                 3           1             3    7     1       0.3153547376E-04       1    1    1         0.1620422925E-02      0.4632439793E-02

    ------------------------------------------------
       NWT REQUIRED            3 OUTER ITERATIONS 
       AND A TOTAL OF          5 INNER ITERATIONS.
    ------------------------------------------------

 NO OUTPUT CONTROL FOR STRESS PERIOD   17   TIME STEP   25
 
 SOLVING FOR HEAD 
                                                   Max.-Head-Change                         Max.-Flux-Residual
  Residual-Control   Outer-Iter.   Inner-Iter.     Column Row Layer    Maximum-Head-Change  Column Row Layer    Maximum-Flux-Residual          L2-NORM 
          0                 1           2             3    7     1       0.4678094290E-02       1    1    1         0.2312497216E+00      0.6524473663E+00
          0                 2           2             3    7     1      -0.4550517359E-03       1    1    1        -0.2312500861E-01      0.6521549704E-01
          0                 3           1             3    7     1       0.3098734545E-04       1    1    1         0.1618750948E-02      0.4562404935E-02

    ------------------------------------------------
       NWT REQUIRED            3 OUTER ITERATIONS 
       AND A TOTAL OF          5 INNER ITERATIONS.
    ------------------------------------------------

 NO OUTPUT CONTROL FOR STRESS PERIOD   17   TIME STEP   26
 
 SOLVING FOR HEAD 
                                                   Max.-Head-Change                         Max.-Flux-Residual
  Residual-Control   Outer-Iter.   Inner-Iter.     Column Row Layer    Maximum-Head-Change  Column Row Layer    Maximum-Flux-Residual          L2-NORM 
          0                 1           2             3    7     1       0.4596911217E-02       1    1    1         0.2310128568E+00      0.6428924084E+00
          0                 2           2             3    7     1      -0.4471548092E-03       1    1    1        -0.2310132199E-01      0.6426449784E-01
          0                 3           1             3    7     1       0.3044959372E-04       1    1    1         0.1617092902E-02      0.4496249497E-02

    ------------------------------------------------
       NWT REQUIRED            3 OUTER ITERATIONS 
       AND A TOTAL OF          5 INNER ITERATIONS.
    ------------------------------------------------

 NO OUTPUT CONTROL FOR STRESS PERIOD   17   TIME STEP   27
 
 SOLVING FOR HEAD 
                                                   Max.-Head-Change                         Max.-Flux-Residual
  Residual-Control   Outer-Iter.   Inner-Iter.     Column Row Layer    Maximum-Head-Change  Column Row Layer    Maximum-Flux-Residual          L2-NORM 
          0                 1           2             3    7     1       0.4517027723E-02       1    1    1         0.2307755579E+00      0.6338593202E+00
          0                 2           2             3    7     1      -0.4393842969E-03       1    1    1        -0.2307759195E-01      0.6336498565E-01
          0                 3           1             3    7     1       0.2992044991E-04       1    1    1         0.1615431799E-02      0.4433596799E-02

    ------------------------------------------------
       NWT REQUIRED            3 OUTER ITERATIONS 
       AND A TOTAL OF          5 INNER ITERATIONS.
    ------------------------------------------------

 NO OUTPUT CONTROL FOR STRESS PERIOD   17   TIME STEP   28
 
 SOLVING FOR HEAD 
                                                   Max.-Head-Change                         Max.-Flux-Residual
  Residual-Control   Outer-Iter.   Inner-Iter.     Column Row Layer    Maximum-Head-Change  Column Row Layer    Maximum-Flux-Residual          L2-NORM 
          0                 1           2             1    1     1       0.4441015836E-02       1    1    1         0.2305390302E+00      0.6253019932E+00
          0                 2           2             1    1     1      -0.4319902862E-03       1    1    1        -0.2305393904E-01      0.6251251317E-01
          0                 3           1             1    1     1       0.2941693155E-04       1    1    1         0.1613776087E-02      0.4374270116E-02

    ------------------------------------------------
       NWT REQUIRED            3 OUTER ITERATIONS 
       AND A TOTAL OF          5 INNER ITERATIONS.
    ------------------------------------------------

 NO OUTPUT CONTROL FOR STRESS PERIOD   17   TIME STEP   29
 
 SOLVING FOR HEAD 
                                                   Max.-Head-Change                         Max.-Flux-Residual
  Residual-Control   Outer-Iter.   Inner-Iter.     Column Row Layer    Maximum-Head-Change  Column Row Layer    Maximum-Flux-Residual          L2-NORM 
          0                 1           2             3    7     1       0.4361828142E-02       4   13    1        -0.2210700704E+00      0.7059012341E+00
          0                 2           2             3    7     1      -0.4242875593E-03       4   13    1         0.2188402900E-01      0.6995390613E-01
          0                 3           1             3    7     1       0.2889241814E-04       4   13    1        -0.1510634749E-02      0.4838608807E-02

    ------------------------------------------------
       NWT REQUIRED            3 OUTER ITERATIONS 
       AND A TOTAL OF          5 INNER ITERATIONS.
    ------------------------------------------------

 NO OUTPUT CONTROL FOR STRESS PERIOD   17   TIME STEP   30



 STREAM LISTING     PERIOD     17   STEP       30

 LAYER ROW COL. STREAM  RCH.  FLOW INTO     FLOW TO   FLOW OUT OF   OVRLND.     DIRECT     STREAM       STREAM     STREAM     STREAM   STREAMBED  STREAMBED
                SEG.NO.  NO.  STRM. RCH.    AQUIFER    STRM. RCH.    RUNOFF     PRECIP       ET          HEAD       DEPTH      WIDTH   CONDCTNC.   GRADIENT

   1    1    1     1     1    6.5908E+01  3.9227E-01   6.5516E+01  0.000E+00  0.000E+00  0.000E+00  1.09464E+03  1.596E+00  1.897E+01  8.536E-02  1.532E+00
   1    2    2     1     2    6.5516E+01  6.0756E-01   6.4909E+01  0.000E+00  0.000E+00  0.000E+00  1.08965E+03  1.590E+00  1.891E+01  1.324E-01  1.530E+00
   1    3    3     1     3    6.4909E+01  5.1821E-01   6.4390E+01  0.000E+00  0.000E+00  0.000E+00  1.08400E+03  1.583E+00  1.884E+01  1.131E-01  1.528E+00
   1    3    4     1     4    6.4390E+01  4.7725E-01   6.3913E+01  0.000E+00  0.000E+00  0.000E+00  1.07899E+03  1.577E+00  1.879E+01  1.043E-01  1.526E+00
   1    4    5     2     1    6.1913E+01  3.9598E-01   6.1517E+01  0.000E+00  0.000E+00  0.000E+00  1.07401E+03  2.077E+00  1.200E+01  7.800E-02  1.692E+00
   1    5    6     2     2    6.1517E+01  3.0418E-01   6.1213E+01  0.000E+00  0.000E+00  0.000E+00  1.06858E+03  2.070E+00  1.200E+01  6.000E-02  1.690E+00
   1    6    6     2     3    6.1213E+01  3.0381E-01   6.0909E+01  0.000E+00  0.000E+00  0.000E+00  1.06386E+03  2.063E+00  1.200E+01  6.000E-02  1.688E+00
   1    7    6     2     4    6.0909E+01  3.0344E-01   6.0606E+01  0.000E+00  0.000E+00  0.000E+00  1.05913E+03  2.057E+00  1.200E+01  6.000E-02  1.686E+00
   1    8    6     2     5    6.0606E+01  3.0307E-01   6.0303E+01  0.000E+00  0.000E+00  0.000E+00  1.05441E+03  2.051E+00  1.200E+01  6.000E-02  1.684E+00
   1    3    5     3     1    2.0000E+00  2.8252E-01   1.7175E+00  0.000E+00  0.000E+00  0.000E+00  1.07555E+03  1.909E+00  9.636E+00  7.227E-02  1.955E+00
   1    3    6     3     2    1.7175E+00  2.4905E-01   1.4684E+00  0.000E+00  0.000E+00  0.000E+00  1.07264E+03  1.727E+00  8.909E+00  6.682E-02  1.864E+00
   1    3    7     3     3    1.4684E+00  1.9718E-01   1.2712E+00  0.000E+00  0.000E+00  0.000E+00  1.06987E+03  1.555E+00  8.218E+00  5.547E-02  1.777E+00
   1    4    8     3     4    1.2712E+00  2.2567E-01   1.0456E+00  0.000E+00  0.000E+00  0.000E+00  1.06682E+03  1.364E+00  7.455E+00  6.709E-02  1.682E+00
   1    5    8     3     5    1.0456E+00  1.5790E-01   8.8768E-01  0.000E+00  0.000E+00  0.000E+00  1.06362E+03  1.164E+00  6.655E+00  4.991E-02  1.582E+00
   1    6    8     3     6    8.8768E-01  5.5980E-02   8.3170E-01  0.000E+00  0.000E+00  0.000E+00  1.06158E+03  1.036E+00  6.145E+00  1.844E-02  1.518E+00
   1    5   10     4     1    1.0000E+01  9.0919E-02   9.9091E+00  0.000E+00  0.000E+00  0.000E+00  1.07836E+03  6.368E-01  1.000E+01  2.500E-02  1.212E+00
   1    5    9     4     2    9.9091E+00  1.8158E-01   9.7275E+00  0.000E+00  0.000E+00  0.000E+00  1.07154E+03  6.315E-01  1.000E+01  5.000E-02  1.211E+00
   1    6    8     4     3    9.7275E+00  1.2689E-01   9.6006E+00  0.000E+00  0.000E+00  0.000E+00  1.06381E+03  6.256E-01  1.000E+01  3.500E-02  1.209E+00
   1    6    8     5     1    1.0432E+01  2.2686E-01   1.0205E+01  0.000E+00  0.000E+00  0.000E+00  1.05868E+03  6.790E-01  1.542E+01  6.166E-02  1.226E+00
   1    7    7     5     2    1.0205E+01  2.7894E-01   9.9265E+00  0.000E+00  0.000E+00  0.000E+00  1.05417E+03  6.732E-01  1.519E+01  7.594E-02  1.224E+00
   1    8    7     5     3    9.9265E+00  1.9221E-01   9.7343E+00  0.000E+00  0.000E+00  0.000E+00  1.04992E+03  6.676E-01  1.497E+01  5.241E-02  1.223E+00
   1    8    6     5     4    9.7343E+00  1.3577E-01   9.5985E+00  0.000E+00  0.000E+00  0.000E+00  1.04691E+03  6.637E-01  1.482E+01  3.706E-02  1.221E+00
   1    9    6     6     1    6.9901E+01  3.1559E-01   6.9586E+01  0.000E+00  0.000E+00  0.000E+00  1.04499E+03  2.260E+00  1.200E+01  6.000E-02  1.753E+00
   1   10    7     6     2    6.9586E+01  3.1522E-01   6.9270E+01  0.000E+00  0.000E+00  0.000E+00  1.04044E+03  2.254E+00  1.200E+01  6.000E-02  1.751E+00
   1   11    7     6     3    6.9270E+01  3.1485E-01   6.8955E+01  0.000E+00  0.000E+00  0.000E+00  1.03588E+03  2.248E+00  1.200E+01  6.000E-02  1.749E+00
   1   12    7     6     4    6.8955E+01  3.1448E-01   6.8641E+01  0.000E+00  0.000E+00  0.000E+00  1.03133E+03  2.241E+00  1.200E+01  6.000E-02  1.747E+00
   1   13    7     6     5    6.8641E+01  2.4650E-02   6.8616E+01  0.000E+00  0.000E+00  0.000E+00  1.02815E+03  2.238E+00  1.200E+01  2.400E-02  3.424E-01
   1   14    9     7     1    1.5000E+02  1.3303E+00   1.4867E+02  0.000E+00  0.000E+00  0.000E+00  1.03987E+03  2.288E+00  5.529E+01  5.593E-01  7.928E-01
   1   13    8     7     2    1.4867E+02  1.8193E+00   1.4685E+02  0.000E+00  0.000E+00  0.000E+00  1.03478E+03  2.279E+00  5.526E+01  6.148E-01  9.864E-01
   1   13    7     7     3    1.4685E+02  1.4352E+00   1.4542E+02  0.000E+00  0.000E+00  0.000E+00  1.02969E+03  2.271E+00  5.522E+01  5.585E-01  8.566E-01
   1   13    6     8     1    2.1403E+02  1.0609E+00   2.1297E+02  0.000E+00  0.000E+00  0.000E+00  1.02509E+03  3.216E+00  4.663E+01  4.751E-01  7.443E-01
   1   13    5     8     2    2.1297E+02  2.4879E-01   2.1272E+02  0.000E+00  0.000E+00  0.000E+00  1.01884E+03  3.212E+00  4.657E+01  4.746E-01  1.747E-01
   1   13    4     8     3    2.1272E+02 -2.3452E+00   2.1507E+02  0.000E+00  0.000E+00  0.000E+00  1.01259E+03  3.218E+00  4.666E+01  4.755E+00 -1.644E-01
   1   13    3     8     4    2.1507E+02 -3.6355E+00   2.1870E+02  0.000E+00  0.000E+00  0.000E+00  1.00636E+03  3.235E+00  4.690E+01  4.779E+00 -2.536E-01
   1   13    2     8     5    2.1870E+02 -2.7174E+00   2.2142E+02  0.000E+00  0.000E+00  0.000E+00  1.00013E+03  3.252E+00  4.716E+01  4.806E+00 -1.885E-01
   1   13    1     8     6    2.2142E+02 -2.0845E+00   2.2350E+02  0.000E+00  0.000E+00  0.000E+00  9.95141E+02  3.265E+00  4.735E+01  2.895E+00 -2.400E-01





UNSATURATED ZONE PACKAGE VOLUMETRIC BUDGET FOR  TIME STEP    30 STRESS PERIOD   17
  ------------------------------------------------------------------------------



     CUMULATIVE VOLUMES      L**3       RATES FOR THIS TIME STEP      L**3/T
     ------------------                 ------------------------

           IN:                                      IN:
           ---                                      ---
        INFILTRATION =   591712265.1218          INFILTRATION =           7.8491

          OUT:                                     OUT:
          ----                                     ----
              UZF ET =   536208727.1190                UZF ET =           7.8575
        UZF RECHARGE =      797698.7981          UZF RECHARGE =       0.0000E+00

            IN - OUT =    54705839.2048              IN - OUT =      -8.3861E-03

          STORAGE:                                 STORAGE:
          --------                                 --------
      STORAGE CHANGE =    54706788.8019        STORAGE CHANGE =      -8.3861E-03

 PERCENT DISCREPANCY IS DIFFERENCE BETWEEN IN-OUT MINUS CHANGE IN STORAGE
 DIVIDED BY THE AVERAGE OF IN AND OUT TIMES 100

 PERCENT DISCREPANCY =          -0.00     PERCENT DISCREPANCY =           0.00






1
  VOLUMETRIC BUDGET FOR AGRICULTURAL FIELDS AT TIME STEP   30, STRESS PERIOD  17
  ------------------------------------------------------------------------------

     CUMULATIVE VOLUMES      L**3       RATES FOR THIS TIME STEP      L**3/T
     ------------------                 ------------------------

           IN:                                      IN:
           ---                                      ---
               AG WELLS  =   406171424.0000                 AG WELLS  =           3.4416
      DIVERSION SEGMENTS =           0.0000        DIVERSION SEGMENTS =           0.0000
           GW IRRIGATION =           0.0000             GW IRRIGATION =           0.0000
           SW IRRIGATION =           0.0000             SW IRRIGATION =           0.0000
        SYSTEM LOSSES GW =           0.0000          SYSTEM LOSSES GW =           0.0000
        SYSTEM LOSSES SW =           0.0000          SYSTEM LOSSES SW =           0.0000

                TOTAL IN =   406171424.0000                  TOTAL IN =           3.4416

          OUT:                                     OUT:
          ----                                     ----
               AG WELLS  =           0.0000                 AG WELLS  =           0.0000
      DIVERSION SEGMENTS =           0.0000        DIVERSION SEGMENTS =           0.0000
           GW IRRIGATION =   406171424.0000             GW IRRIGATION =           3.4416
           SW IRRIGATION =           0.0000             SW IRRIGATION =           0.0000
        SYSTEM LOSSES GW =           0.0000          SYSTEM LOSSES GW =           0.0000
        SYSTEM LOSSES SW =           0.0000          SYSTEM LOSSES SW =           0.0000

               TOTAL OUT =   406171424.0000                 TOTAL OUT =           3.4416

                IN - OUT =           0.0000                  IN - OUT =           0.0000

     PERCENT DISCREPANCY =           0.00         PERCENT DISCREPANCY =           0.00



1
  VOLUMETRIC BUDGET FOR ENTIRE MODEL AT END OF TIME STEP   30, STRESS PERIOD  17
  ------------------------------------------------------------------------------

     CUMULATIVE VOLUMES      L**3       RATES FOR THIS TIME STEP      L**3/T
     ------------------                 ------------------------

           IN:                                      IN:
           ---                                      ---
             STORAGE     =   577289728.0000               STORAGE     =           3.4058
       CONSTANT HEAD     =           0.0000         CONSTANT HEAD     =           0.0000
     HEAD DEP BOUNDS     =    12034672.0000       HEAD DEP BOUNDS     =           0.2854
      STREAM LEAKAGE     =   527286560.0000        STREAM LEAKAGE     =          13.1865
        UZF RECHARGE     =      797698.6250          UZF RECHARGE     =           0.0000
               GW ET     =           0.0000                 GW ET     =           0.0000
     SURFACE LEAKAGE     =           0.0000       SURFACE LEAKAGE     =           0.0000
           AG WELLS      =           0.0000             AG WELLS      =           0.0000

                TOTAL IN =  1117408640.0000                  TOTAL IN =          16.8777

          OUT:                                     OUT:
          ----                                     ----
             STORAGE     =   249036016.0000               STORAGE     =           2.1189
       CONSTANT HEAD     =           0.0000         CONSTANT HEAD     =           0.0000
     HEAD DEP BOUNDS     =    12416757.0000       HEAD DEP BOUNDS     =           0.2987
      STREAM LEAKAGE     =   435538208.0000        STREAM LEAKAGE     =          10.7826
        UZF RECHARGE     =           0.0000          UZF RECHARGE     =           0.0000
               GW ET     =    14250752.0000                 GW ET     =           0.2355
     SURFACE LEAKAGE     =           0.0000       SURFACE LEAKAGE     =           0.0000
           AG WELLS      =   406171424.0000             AG WELLS      =           3.4416

               TOTAL OUT =  1117413120.0000                 TOTAL OUT =          16.8773

                IN - OUT =       -4480.0000                  IN - OUT =       3.7384E-04

     PERCENT DISCREPANCY =          -0.00         PERCENT DISCREPANCY =           0.00






         TIME SUMMARY AT END OF TIME STEP   30 IN STRESS PERIOD   17
                    SECONDS     MINUTES      HOURS       DAYS        YEARS
                    -----------------------------------------------------------
   TIME STEP LENGTH  87667.      1461.1      24.352      1.0147     2.77799E-03
 STRESS PERIOD TIME 2.63000E+06  43833.      730.56      30.440     8.33397E-02
         TOTAL TIME 4.21664E+07 7.02774E+05  11713.      488.04      1.3362    
1
1
                            STRESS PERIOD NO.   18, LENGTH =   2630000.    
                            -----------------------------------------------

                              NUMBER OF TIME STEPS =    30

                               MULTIPLIER FOR DELT =     1.000

                            INITIAL TIME STEP SIZE =   87666.66    

 REUSING NON-PARAMETER GHB CELLS FROM LAST STRESS PERIOD

      2 GHB CELLS

 REUSING STREAM SEGMENT DATA FROM LAST STRESS PERIOD



            AREAL INFILTRATION RATE
 READING ON UNIT   19 WITH FORMAT: (10F4.0)            

            1           2           3           4           5           6           7           8           9          10
 ........................................................................................................................
   1   1.2000E-09   0.000       0.000       0.000       0.000       0.000       0.000       0.000       0.000       0.000    
   2   2.1000E-09  2.0000E-09  8.0000E-10  8.5000E-09   0.000       0.000       0.000       0.000       0.000       0.000    
   3   5.0000E-10  1.1000E-09  8.8000E-09  5.5000E-09   0.000       0.000       0.000       0.000       0.000       0.000    
   4   8.5000E-09  1.1000E-09  1.1000E-09  1.1000E-09  2.0000E-09   0.000       0.000       0.000       0.000       0.000    
   5   8.5000E-09  1.1000E-09  1.1000E-09  1.1000E-09  1.1000E-09   0.000       0.000       0.000       0.000       0.000    
   6   8.5000E-09  5.2000E-09  2.1000E-09  1.1000E-09  1.5000E-09   0.000       0.000       0.000       0.000       0.000    
   7   8.5000E-09  5.2000E-09  2.1000E-09  1.2000E-09  2.0000E-09   0.000       0.000       0.000       0.000       0.000    
   8   5.0000E-10  5.2000E-09  2.1000E-09  1.2000E-09  5.0000E-09   0.000       0.000       0.000       0.000       0.000    
   9   5.0000E-10  5.2000E-09  2.1000E-09  1.2000E-09  5.0000E-09   0.000       0.000       0.000       0.000       0.000    
  10   5.0000E-10  5.2000E-09  2.1000E-09  1.2000E-09  5.8000E-09   0.000       0.000       0.000       0.000       0.000    
  11   1.0000E-10  1.1000E-09  1.1000E-09  1.2000E-09  5.0000E-09   0.000       0.000       0.000       0.000       0.000    
  12   1.1000E-09  1.1000E-09  1.1000E-09  1.1000E-09  2.0000E-09   0.000       0.000       0.000       0.000       0.000    
  13   1.1000E-09  2.2000E-09  2.2000E-09  2.1000E-09  1.0000E-09   0.000       0.000       0.000       0.000       0.000    
  14   2.0000E-10  5.5000E-09  5.5000E-09  5.2000E-09  1.0000E-09   0.000       0.000       0.000       0.000       0.000    
  15    0.000      8.8000E-09  8.8000E-09   0.000       0.000       0.000       0.000       0.000       0.000       0.000    

                  ET RATE =  5.000000E-08

 USING ET EXTINCTION DEPTH FROM PREVIOUS STRESS PERIOD. CURRENT PERIOD IS:      18

 USING EXTINCTION WATER CONTENT FROM PREVIOUS STRESS PERIOD. CURRENT PERIOD IS:      18

 USING AIR ENTRY PRESSURE FROM PREVIOUS STRESS PERIOD. CURRENT PERIOD IS:      18

 USING ROOT PRESSURE HEAD FROM PREVIOUS STRESS PERIOD. CURRENT PERIOD IS:      18

 USING ROOT ACTIVITY FROM PREVIOUS STRESS PERIOD. CURRENT PERIOD IS:      18

 PROCESSING AG STRESS PERIOD DATA

 READING AG STRESS PERIOD DATA

 READING IRRIGATION WELL

 END PROCESSING AG STRESS PERIOD DATA OPTIONS
 
 SOLVING FOR HEAD 
                                                   Max.-Head-Change                         Max.-Flux-Residual
  Residual-Control   Outer-Iter.   Inner-Iter.     Column Row Layer    Maximum-Head-Change  Column Row Layer    Maximum-Flux-Residual          L2-NORM 
          0                 1           2             4    7     1      -0.1322441337E-01       5    7    1        -0.6961431127E+00      0.1855980616E+01
          0                 2           2             4    7     1       0.1286374168E-02       5    7    1         0.6961427143E-01      0.1850464184E+00
          0                 3           1             4    7     1      -0.8759731726E-04       5    7    1        -0.4873001484E-02      0.1290299205E-01

    ------------------------------------------------
       NWT REQUIRED            3 OUTER ITERATIONS 
       AND A TOTAL OF          5 INNER ITERATIONS.
    ------------------------------------------------

 NO OUTPUT CONTROL FOR STRESS PERIOD   18   TIME STEP    1
 
 SOLVING FOR HEAD 
                                                   Max.-Head-Change                         Max.-Flux-Residual
  Residual-Control   Outer-Iter.   Inner-Iter.     Column Row Layer    Maximum-Head-Change  Column Row Layer    Maximum-Flux-Residual          L2-NORM 
          0                 1           2             4    7     1      -0.1295945458E-01       4    7    1        -0.6786382916E+00      0.1769292941E+01
          0                 2           2             4    7     1       0.1260600714E-02       4    7    1         0.6786378102E-01      0.1764643472E+00
          0                 3           1             4    7     1      -0.8584224271E-04       4    7    1        -0.4750467174E-02      0.1231007425E-01

    ------------------------------------------------
       NWT REQUIRED            3 OUTER ITERATIONS 
       AND A TOTAL OF          5 INNER ITERATIONS.
    ------------------------------------------------

 NO OUTPUT CONTROL FOR STRESS PERIOD   18   TIME STEP    2
 
 SOLVING FOR HEAD 
                                                   Max.-Head-Change                         Max.-Flux-Residual
  Residual-Control   Outer-Iter.   Inner-Iter.     Column Row Layer    Maximum-Head-Change  Column Row Layer    Maximum-Flux-Residual          L2-NORM 
          0                 1           2             4    7     1      -0.1286469768E-01       4    7    1        -0.6739642933E+00      0.1721049817E+01
          0                 2           2             4    7     1       0.1251383296E-02       4    7    1         0.6739637025E-01      0.1717195454E+00
          0                 3           1             4    7     1      -0.8521457241E-04       4    7    1        -0.4717748520E-02      0.1198545461E-01

    ------------------------------------------------
       NWT REQUIRED            3 OUTER ITERATIONS 
       AND A TOTAL OF          5 INNER ITERATIONS.
    ------------------------------------------------

 NO OUTPUT CONTROL FOR STRESS PERIOD   18   TIME STEP    3
 
 SOLVING FOR HEAD 
                                                   Max.-Head-Change                         Max.-Flux-Residual
  Residual-Control   Outer-Iter.   Inner-Iter.     Column Row Layer    Maximum-Head-Change  Column Row Layer    Maximum-Flux-Residual          L2-NORM 
          0                 1           2             4    7     1      -0.1276464145E-01       4    7    1        -0.6689882136E+00      0.1676950263E+01
          0                 2           2             4    7     1       0.1241650414E-02       4    7    1         0.6689875255E-01      0.1673751093E+00
          0                 3           1             4    7     1      -0.8455180051E-04       4    7    1        -0.4682915342E-02      0.1168710948E-01

    ------------------------------------------------
       NWT REQUIRED            3 OUTER ITERATIONS 
       AND A TOTAL OF          5 INNER ITERATIONS.
    ------------------------------------------------

 NO OUTPUT CONTROL FOR STRESS PERIOD   18   TIME STEP    4
 
 SOLVING FOR HEAD 
                                                   Max.-Head-Change                         Max.-Flux-Residual
  Residual-Control   Outer-Iter.   Inner-Iter.     Column Row Layer    Maximum-Head-Change  Column Row Layer    Maximum-Flux-Residual          L2-NORM 
          0                 1           2             4    7     1      -0.1266015378E-01       4    7    1        -0.6637575997E+00      0.1636419515E+01
          0                 2           2             4    7     1       0.1231486490E-02       4    7    1         0.6637568253E-01      0.1633763936E+00
          0                 3           1             4    7     1      -0.8385967627E-04       4    7    1        -0.4646300514E-02      0.1141260224E-01

    ------------------------------------------------
       NWT REQUIRED            3 OUTER ITERATIONS 
       AND A TOTAL OF          5 INNER ITERATIONS.
    ------------------------------------------------

 NO OUTPUT CONTROL FOR STRESS PERIOD   18   TIME STEP    5
 
 SOLVING FOR HEAD 
                                                   Max.-Head-Change                         Max.-Flux-Residual
  Residual-Control   Outer-Iter.   Inner-Iter.     Column Row Layer    Maximum-Head-Change  Column Row Layer    Maximum-Flux-Residual          L2-NORM 
          0                 1           2             4    7     1      -0.1255134923E-01       4    7    1        -0.6582795252E+00      0.1598928357E+01
          0                 2           2             4    7     1       0.1220881882E-02       4    7    1         0.6582786750E-01      0.1596196187E+00
          0                 3           1             4    7     1      -0.8313754257E-04       4    7    1        -0.4607953517E-02      0.1115352802E-01

    ------------------------------------------------
       NWT REQUIRED            3 OUTER ITERATIONS 
       AND A TOTAL OF          5 INNER ITERATIONS.
    ------------------------------------------------

 NO OUTPUT CONTROL FOR STRESS PERIOD   18   TIME STEP    6
 
 SOLVING FOR HEAD 
                                                   Max.-Head-Change                         Max.-Flux-Residual
  Residual-Control   Outer-Iter.   Inner-Iter.     Column Row Layer    Maximum-Head-Change  Column Row Layer    Maximum-Flux-Residual          L2-NORM 
          0                 1           2             4    7     1      -0.1243915311E-01       4    7    1        -0.6525974101E+00      0.1564103776E+01
          0                 2           2             4    7     1       0.1209988979E-02       4    7    1         0.6525964952E-01      0.1562265885E+00
          0                 3           1             4    7     1      -0.8239577753E-04       4    7    1        -0.4568178319E-02      0.1091905474E-01

    ------------------------------------------------
       NWT REQUIRED            3 OUTER ITERATIONS 
       AND A TOTAL OF          5 INNER ITERATIONS.
    ------------------------------------------------

 NO OUTPUT CONTROL FOR STRESS PERIOD   18   TIME STEP    7
 
 SOLVING FOR HEAD 
                                                   Max.-Head-Change                         Max.-Flux-Residual
  Residual-Control   Outer-Iter.   Inner-Iter.     Column Row Layer    Maximum-Head-Change  Column Row Layer    Maximum-Flux-Residual          L2-NORM 
          0                 1           2             4    7     1      -0.1232392944E-01       4    7    1        -0.6467403409E+00      0.1531700386E+01
          0                 2           2             4    7     1       0.1198780776E-02       4    7    1         0.6467393693E-01      0.1530165846E+00
          0                 3           1             4    7     1      -0.8163254114E-04       4    7    1        -0.4527178453E-02      0.1069734306E-01

    ------------------------------------------------
       NWT REQUIRED            3 OUTER ITERATIONS 
       AND A TOTAL OF          5 INNER ITERATIONS.
    ------------------------------------------------

 NO OUTPUT CONTROL FOR STRESS PERIOD   18   TIME STEP    8
 
 SOLVING FOR HEAD 
                                                   Max.-Head-Change                         Max.-Flux-Residual
  Residual-Control   Outer-Iter.   Inner-Iter.     Column Row Layer    Maximum-Head-Change  Column Row Layer    Maximum-Flux-Residual          L2-NORM 
          0                 1           2             4    7     1      -0.1220584106E-01       4    7    1        -0.6407158862E+00      0.1501295766E+01
          0                 2           2             4    7     1       0.1187293927E-02       4    7    1         0.6407148659E-01      0.1500015060E+00
          0                 3           1             4    7     1      -0.8085033006E-04       4    7    1        -0.4485006960E-02      0.1048856430E-01

    ------------------------------------------------
       NWT REQUIRED            3 OUTER ITERATIONS 
       AND A TOTAL OF          5 INNER ITERATIONS.
    ------------------------------------------------

 NO OUTPUT CONTROL FOR STRESS PERIOD   18   TIME STEP    9
 
 SOLVING FOR HEAD 
                                                   Max.-Head-Change                         Max.-Flux-Residual
  Residual-Control   Outer-Iter.   Inner-Iter.     Column Row Layer    Maximum-Head-Change  Column Row Layer    Maximum-Flux-Residual          L2-NORM 
          0                 1           2             4    7     1      -0.1208553897E-01       4    7    1        -0.6345600274E+00      0.1472646922E+01
          0                 2           2             4    7     1       0.1175591755E-02       4    7    1         0.6345589649E-01      0.1471570667E+00
          0                 3           1             4    7     1      -0.8005345613E-04       4    7    1        -0.4441915669E-02      0.1029122335E-01

    ------------------------------------------------
       NWT REQUIRED            3 OUTER ITERATIONS 
       AND A TOTAL OF          5 INNER ITERATIONS.
    ------------------------------------------------

 NO OUTPUT CONTROL FOR STRESS PERIOD   18   TIME STEP   10
 
 SOLVING FOR HEAD 
                                                   Max.-Head-Change                         Max.-Flux-Residual
  Residual-Control   Outer-Iter.   Inner-Iter.     Column Row Layer    Maximum-Head-Change  Column Row Layer    Maximum-Flux-Residual          L2-NORM 
          0                 1           2             4    7     1      -0.1196322691E-01       4    7    1        -0.6282842902E+00      0.1445551672E+01
          0                 2           2             4    7     1       0.1163694075E-02       4    7    1         0.6282831919E-01      0.1444650694E+00
          0                 3           1             4    7     1      -0.7924326885E-04       4    7    1        -0.4397985273E-02      0.1010436843E-01

    ------------------------------------------------
       NWT REQUIRED            3 OUTER ITERATIONS 
       AND A TOTAL OF          5 INNER ITERATIONS.
    ------------------------------------------------

 NO OUTPUT CONTROL FOR STRESS PERIOD   18   TIME STEP   11
 
 SOLVING FOR HEAD 
                                                   Max.-Head-Change                         Max.-Flux-Residual
  Residual-Control   Outer-Iter.   Inner-Iter.     Column Row Layer    Maximum-Head-Change  Column Row Layer    Maximum-Flux-Residual          L2-NORM 
          0                 1           2             4    7     1      -0.1183923311E-01       4    7    1        -0.6219064879E+00      0.1419850110E+01
          0                 2           2             4    7     1       0.1151632818E-02       4    7    1         0.6219053600E-01      0.1419090414E+00
          0                 3           1             4    7     1      -0.7842194254E-04       4    7    1        -0.4353340458E-02      0.9926747371E-02

    ------------------------------------------------
       NWT REQUIRED            3 OUTER ITERATIONS 
       AND A TOTAL OF          5 INNER ITERATIONS.
    ------------------------------------------------

 NO OUTPUT CONTROL FOR STRESS PERIOD   18   TIME STEP   12
 
 SOLVING FOR HEAD 
                                                   Max.-Head-Change                         Max.-Flux-Residual
  Residual-Control   Outer-Iter.   Inner-Iter.     Column Row Layer    Maximum-Head-Change  Column Row Layer    Maximum-Flux-Residual          L2-NORM 
          0                 1           2             4    7     1      -0.1171398685E-01       4    7    1        -0.6154506507E+00      0.1395407158E+01
          0                 2           2             4    7     1       0.1139449739E-02       4    7    1         0.6154494983E-01      0.1394765383E+00
          0                 3           1             4    7     1      -0.7759232024E-04       4    7    1        -0.4308149437E-02      0.9757529066E-02

    ------------------------------------------------
       NWT REQUIRED            3 OUTER ITERATIONS 
       AND A TOTAL OF          5 INNER ITERATIONS.
    ------------------------------------------------

 NO OUTPUT CONTROL FOR STRESS PERIOD   18   TIME STEP   13
 
 SOLVING FOR HEAD 
                                                   Max.-Head-Change                         Max.-Flux-Residual
  Residual-Control   Outer-Iter.   Inner-Iter.     Column Row Layer    Maximum-Head-Change  Column Row Layer    Maximum-Flux-Residual          L2-NORM 
          0                 1           2             4    7     1      -0.1158748252E-01       4    7    1        -0.6089164529E+00      0.1372101127E+01
          0                 2           2             4    7     1       0.1127144290E-02       4    7    1         0.6089152809E-01      0.1371558784E+00
          0                 3           1             4    7     1      -0.7675436527E-04       4    7    1        -0.4262409922E-02      0.9595982477E-02

    ------------------------------------------------
       NWT REQUIRED            3 OUTER ITERATIONS 
       AND A TOTAL OF          5 INNER ITERATIONS.
    ------------------------------------------------

 NO OUTPUT CONTROL FOR STRESS PERIOD   18   TIME STEP   14
 
 SOLVING FOR HEAD 
                                                   Max.-Head-Change                         Max.-Flux-Residual
  Residual-Control   Outer-Iter.   Inner-Iter.     Column Row Layer    Maximum-Head-Change  Column Row Layer    Maximum-Flux-Residual          L2-NORM 
          0                 1           2             4    7     1      -0.1146025460E-01       4    7    1        -0.6023334352E+00      0.1349829117E+01
          0                 2           2             4    7     1       0.1114768462E-02       4    7    1         0.6023322482E-01      0.1349367063E+00
          0                 3           1             4    7     1      -0.7591161766E-04       4    7    1        -0.4216328688E-02      0.9441422214E-02

    ------------------------------------------------
       NWT REQUIRED            3 OUTER ITERATIONS 
       AND A TOTAL OF          5 INNER ITERATIONS.
    ------------------------------------------------

 NO OUTPUT CONTROL FOR STRESS PERIOD   18   TIME STEP   15
 
 SOLVING FOR HEAD 
                                                   Max.-Head-Change                         Max.-Flux-Residual
  Residual-Control   Outer-Iter.   Inner-Iter.     Column Row Layer    Maximum-Head-Change  Column Row Layer    Maximum-Flux-Residual          L2-NORM 
          0                 1           2             4    7     1      -0.1133239690E-01       4    7    1        -0.5957067270E+00      0.1328523025E+01
          0                 2           2             4    7     1       0.1102331380E-02       4    7    1         0.5957055286E-01      0.1328129990E+00
          0                 3           1             4    7     1      -0.7506469845E-04       4    7    1        -0.4169941634E-02      0.9293283180E-02

    ------------------------------------------------
       NWT REQUIRED            3 OUTER ITERATIONS 
       AND A TOTAL OF          5 INNER ITERATIONS.
    ------------------------------------------------

 NO OUTPUT CONTROL FOR STRESS PERIOD   18   TIME STEP   16
 
 SOLVING FOR HEAD 
                                                   Max.-Head-Change                         Max.-Flux-Residual
  Residual-Control   Outer-Iter.   Inner-Iter.     Column Row Layer    Maximum-Head-Change  Column Row Layer    Maximum-Flux-Residual          L2-NORM 
          0                 1           2             4    7     1      -0.1120398353E-01       4    7    1        -0.5890411936E+00      0.1308079197E+01
          0                 2           2             4    7     1       0.1089840251E-02       4    7    1         0.5890399880E-01      0.1307744876E+00
          0                 3           1             4    7     1      -0.7421409945E-04       4    7    1        -0.4123282844E-02      0.9151301665E-02

    ------------------------------------------------
       NWT REQUIRED            3 OUTER ITERATIONS 
       AND A TOTAL OF          5 INNER ITERATIONS.
    ------------------------------------------------

 NO OUTPUT CONTROL FOR STRESS PERIOD   18   TIME STEP   17
 
 SOLVING FOR HEAD 
                                                   Max.-Head-Change                         Max.-Flux-Residual
  Residual-Control   Outer-Iter.   Inner-Iter.     Column Row Layer    Maximum-Head-Change  Column Row Layer    Maximum-Flux-Residual          L2-NORM 
          0                 1           2             4    7     1      -0.1107549324E-01       4    7    1        -0.5823626615E+00      0.1288461095E+01
          0                 2           2             4    7     1       0.1077341646E-02       4    7    1         0.5823614515E-01      0.1288173615E+00
          0                 3           1             4    7     1      -0.7336299053E-04       4    7    1        -0.4076533067E-02      0.9014614776E-02

    ------------------------------------------------
       NWT REQUIRED            3 OUTER ITERATIONS 
       AND A TOTAL OF          5 INNER ITERATIONS.
    ------------------------------------------------

 NO OUTPUT CONTROL FOR STRESS PERIOD   18   TIME STEP   18
 
 SOLVING FOR HEAD 
                                                   Max.-Head-Change                         Max.-Flux-Residual
  Residual-Control   Outer-Iter.   Inner-Iter.     Column Row Layer    Maximum-Head-Change  Column Row Layer    Maximum-Flux-Residual          L2-NORM 
          0                 1           2             4    7     1      -0.1094696409E-01       4    7    1        -0.5756734921E+00      0.1269602785E+01
          0                 2           2             4    7     1       0.1064839264E-02       4    7    1         0.5756722809E-01      0.1269356714E+00
          0                 3           1             4    7     1      -0.7251162482E-04       4    7    1        -0.4029708848E-02      0.8883243578E-02

    ------------------------------------------------
       NWT REQUIRED            3 OUTER ITERATIONS 
       AND A TOTAL OF          5 INNER ITERATIONS.
    ------------------------------------------------

 NO OUTPUT CONTROL FOR STRESS PERIOD   18   TIME STEP   19
 
 SOLVING FOR HEAD 
                                                   Max.-Head-Change                         Max.-Flux-Residual
  Residual-Control   Outer-Iter.   Inner-Iter.     Column Row Layer    Maximum-Head-Change  Column Row Layer    Maximum-Flux-Residual          L2-NORM 
          0                 1           2             4    7     1      -0.1081856669E-01       4    7    1        -0.5689835029E+00      0.1251457696E+01
          0                 2           2             4    7     1       0.1052349701E-02       4    7    1         0.5689822929E-01      0.1251245687E+00
          0                 3           1             4    7     1      -0.7166113196E-04       4    7    1        -0.3982878927E-02      0.8756851697E-02

    ------------------------------------------------
       NWT REQUIRED            3 OUTER ITERATIONS 
       AND A TOTAL OF          5 INNER ITERATIONS.
    ------------------------------------------------

 NO OUTPUT CONTROL FOR STRESS PERIOD   18   TIME STEP   20
 
 SOLVING FOR HEAD 
                                                   Max.-Head-Change                         Max.-Flux-Residual
  Residual-Control   Outer-Iter.   Inner-Iter.     Column Row Layer    Maximum-Head-Change  Column Row Layer    Maximum-Flux-Residual          L2-NORM 
          0                 1           2             4    7     1      -0.1069058449E-01       4    7    1        -0.5623081920E+00      0.1233981204E+01
          0                 2           2             4    7     1       0.1039900530E-02       4    7    1         0.5623069857E-01      0.1233797788E+00
          0                 3           1             4    7     1      -0.7081338972E-04       4    7    1        -0.3936151753E-02      0.8634875107E-02

    ------------------------------------------------
       NWT REQUIRED            3 OUTER ITERATIONS 
       AND A TOTAL OF          5 INNER ITERATIONS.
    ------------------------------------------------

 NO OUTPUT CONTROL FOR STRESS PERIOD   18   TIME STEP   21
 
 SOLVING FOR HEAD 
                                                   Max.-Head-Change                         Max.-Flux-Residual
  Residual-Control   Outer-Iter.   Inner-Iter.     Column Row Layer    Maximum-Head-Change  Column Row Layer    Maximum-Flux-Residual          L2-NORM 
          0                 1           2             4    7     1      -0.1056288065E-01       4    7    1        -0.5556403923E+00      0.1217129350E+01
          0                 2           2             4    7     1       0.1027478440E-02       4    7    1         0.5556391921E-01      0.1216969872E+00
          0                 3           1             4    7     1      -0.6996749129E-04       4    7    1        -0.3889477163E-02      0.8517333250E-02

    ------------------------------------------------
       NWT REQUIRED            3 OUTER ITERATIONS 
       AND A TOTAL OF          5 INNER ITERATIONS.
    ------------------------------------------------

 NO OUTPUT CONTROL FOR STRESS PERIOD   18   TIME STEP   22
 
 SOLVING FOR HEAD 
                                                   Max.-Head-Change                         Max.-Flux-Residual
  Residual-Control   Outer-Iter.   Inner-Iter.     Column Row Layer    Maximum-Head-Change  Column Row Layer    Maximum-Flux-Residual          L2-NORM 
          0                 1           2             4    7     1      -0.1043572839E-01       4    7    1        -0.5489953495E+00      0.1200866222E+01
          0                 2           2             4    7     1       0.1015110004E-02       4    7    1         0.5489941569E-01      0.1200727194E+00
          0                 3           1             4    7     1      -0.6912524649E-04       4    7    1        -0.3842961886E-02      0.8403837545E-02

    ------------------------------------------------
       NWT REQUIRED            3 OUTER ITERATIONS 
       AND A TOTAL OF          5 INNER ITERATIONS.
    ------------------------------------------------

 NO OUTPUT CONTROL FOR STRESS PERIOD   18   TIME STEP   23
 
 SOLVING FOR HEAD 
                                                   Max.-Head-Change                         Max.-Flux-Residual
  Residual-Control   Outer-Iter.   Inner-Iter.     Column Row Layer    Maximum-Head-Change  Column Row Layer    Maximum-Flux-Residual          L2-NORM 
          0                 1           2             4    7     1      -0.1030937230E-01       4    7    1        -0.5423865133E+00      0.1185168672E+01
          0                 2           2             4    7     1       0.1002819017E-02       4    7    1         0.5423853300E-01      0.1185047651E+00
          0                 3           1             4    7     1      -0.6828827573E-04       4    7    1        -0.3796700074E-02      0.8294283872E-02

    ------------------------------------------------
       NWT REQUIRED            3 OUTER ITERATIONS 
       AND A TOTAL OF          5 INNER ITERATIONS.
    ------------------------------------------------

 NO OUTPUT CONTROL FOR STRESS PERIOD   18   TIME STEP   24
 
 SOLVING FOR HEAD 
                                                   Max.-Head-Change                         Max.-Flux-Residual
  Residual-Control   Outer-Iter.   Inner-Iter.     Column Row Layer    Maximum-Head-Change  Column Row Layer    Maximum-Flux-Residual          L2-NORM 
          0                 1           2             4    7     1      -0.1018364831E-01       4    7    1        -0.5358049415E+00      0.1170005773E+01
          0                 2           2             4    7     1       0.9905895188E-03       4    7    1         0.5358037692E-01      0.1169899702E+00
          0                 3           1             4    7     1      -0.6745549206E-04       4    7    1        -0.3750629117E-02      0.8188323362E-02

    ------------------------------------------------
       NWT REQUIRED            3 OUTER ITERATIONS 
       AND A TOTAL OF          5 INNER ITERATIONS.
    ------------------------------------------------

 NO OUTPUT CONTROL FOR STRESS PERIOD   18   TIME STEP   25
 
 SOLVING FOR HEAD 
                                                   Max.-Head-Change                         Max.-Flux-Residual
  Residual-Control   Outer-Iter.   Inner-Iter.     Column Row Layer    Maximum-Head-Change  Column Row Layer    Maximum-Flux-Residual          L2-NORM 
          0                 1           2             4    7     1      -0.1005892912E-01       4    7    1        -0.5292714759E+00      0.1155353416E+01
          0                 2           2             4    7     1       0.9784577615E-03       4    7    1         0.5292703160E-01      0.1155260668E+00
          0                 3           1             4    7     1      -0.6662936413E-04       4    7    1        -0.3704894917E-02      0.8086016100E-02

    ------------------------------------------------
       NWT REQUIRED            3 OUTER ITERATIONS 
       AND A TOTAL OF          5 INNER ITERATIONS.
    ------------------------------------------------

 NO OUTPUT CONTROL FOR STRESS PERIOD   18   TIME STEP   26
 
 SOLVING FOR HEAD 
                                                   Max.-Head-Change                         Max.-Flux-Residual
  Residual-Control   Outer-Iter.   Inner-Iter.     Column Row Layer    Maximum-Head-Change  Column Row Layer    Maximum-Flux-Residual          L2-NORM 
          0                 1           2             4    7     1      -0.9935156218E-02       4    7    1        -0.5227829816E+00      0.1141178622E+01
          0                 2           2             4    7     1       0.9664180543E-03       4    7    1         0.5227818351E-01      0.1141097295E+00
          0                 3           1             4    7     1      -0.6580950437E-04       4    7    1        -0.3659475511E-02      0.7986925011E-02

    ------------------------------------------------
       NWT REQUIRED            3 OUTER ITERATIONS 
       AND A TOTAL OF          5 INNER ITERATIONS.
    ------------------------------------------------

 NO OUTPUT CONTROL FOR STRESS PERIOD   18   TIME STEP   27
 
 SOLVING FOR HEAD 
                                                   Max.-Head-Change                         Max.-Flux-Residual
  Residual-Control   Outer-Iter.   Inner-Iter.     Column Row Layer    Maximum-Head-Change  Column Row Layer    Maximum-Flux-Residual          L2-NORM 
          0                 1           2             4    7     1      -0.9812410359E-02       4    7    1        -0.5163441504E+00      0.1127457602E+01
          0                 2           2             4    7     1       0.9544782514E-03       4    7    1         0.5163430182E-01      0.1127385276E+00
          0                 3           1             4    7     1      -0.6499644790E-04       4    7    1        -0.3614403754E-02      0.7891039942E-02

    ------------------------------------------------
       NWT REQUIRED            3 OUTER ITERATIONS 
       AND A TOTAL OF          5 INNER ITERATIONS.
    ------------------------------------------------

 NO OUTPUT CONTROL FOR STRESS PERIOD   18   TIME STEP   28
 
 SOLVING FOR HEAD 
                                                   Max.-Head-Change                         Max.-Flux-Residual
  Residual-Control   Outer-Iter.   Inner-Iter.     Column Row Layer    Maximum-Head-Change  Column Row Layer    Maximum-Flux-Residual          L2-NORM 
          0                 1           2             4    7     1      -0.9690760292E-02       4    7    1        -0.5099589299E+00      0.1114183614E+01
          0                 2           2             4    7     1       0.9426450408E-03       4    7    1         0.5099578131E-01      0.1114120632E+00
          0                 3           1             4    7     1      -0.6419064996E-04       4    7    1        -0.3569707286E-02      0.7798299356E-02

    ------------------------------------------------
       NWT REQUIRED            3 OUTER ITERATIONS 
       AND A TOTAL OF          5 INNER ITERATIONS.
    ------------------------------------------------

 NO OUTPUT CONTROL FOR STRESS PERIOD   18   TIME STEP   29
 
 SOLVING FOR HEAD 
                                                   Max.-Head-Change                         Max.-Flux-Residual
  Residual-Control   Outer-Iter.   Inner-Iter.     Column Row Layer    Maximum-Head-Change  Column Row Layer    Maximum-Flux-Residual          L2-NORM 
          0                 1           2             4    7     1      -0.9570405079E-02       4    7    1        -0.5036381315E+00      0.1101331739E+01
          0                 2           2             4    7     1       0.9309377851E-03       4    7    1         0.5036370306E-01      0.1101274054E+00
          0                 3           1             4    7     1      -0.6339342930E-04       4    7    1        -0.3525461785E-02      0.7708382257E-02

    ------------------------------------------------
       NWT REQUIRED            3 OUTER ITERATIONS 
       AND A TOTAL OF          5 INNER ITERATIONS.
    ------------------------------------------------

 NO OUTPUT CONTROL FOR STRESS PERIOD   18   TIME STEP   30



 STREAM LISTING     PERIOD     18   STEP       30

 LAYER ROW COL. STREAM  RCH.  FLOW INTO     FLOW TO   FLOW OUT OF   OVRLND.     DIRECT     STREAM       STREAM     STREAM     STREAM   STREAMBED  STREAMBED
                SEG.NO.  NO.  STRM. RCH.    AQUIFER    STRM. RCH.    RUNOFF     PRECIP       ET          HEAD       DEPTH      WIDTH   CONDCTNC.   GRADIENT

   1    1    1     1     1    6.3001E+01  3.8237E-01   6.2619E+01  0.000E+00  0.000E+00  0.000E+00  1.09461E+03  1.562E+00  1.863E+01  8.382E-02  1.521E+00
   1    2    2     1     2    6.2619E+01  5.9218E-01   6.2026E+01  0.000E+00  0.000E+00  0.000E+00  1.08961E+03  1.556E+00  1.857E+01  1.300E-01  1.519E+00
   1    3    3     1     3    6.2026E+01  5.0506E-01   6.1521E+01  0.000E+00  0.000E+00  0.000E+00  1.08397E+03  1.549E+00  1.850E+01  1.110E-01  1.516E+00
   1    3    4     1     4    6.1521E+01  4.6511E-01   6.1056E+01  0.000E+00  0.000E+00  0.000E+00  1.07895E+03  1.543E+00  1.845E+01  1.024E-01  1.514E+00
   1    4    5     2     1    5.9056E+01  3.9145E-01   5.8665E+01  0.000E+00  0.000E+00  0.000E+00  1.07395E+03  2.019E+00  1.200E+01  7.800E-02  1.673E+00
   1    5    6     2     2    5.8665E+01  3.0069E-01   5.8364E+01  0.000E+00  0.000E+00  0.000E+00  1.06852E+03  2.011E+00  1.200E+01  6.000E-02  1.670E+00
   1    6    6     2     3    5.8364E+01  3.0031E-01   5.8064E+01  0.000E+00  0.000E+00  0.000E+00  1.06380E+03  2.005E+00  1.200E+01  6.000E-02  1.668E+00
   1    7    6     2     4    5.8064E+01  2.9994E-01   5.7764E+01  0.000E+00  0.000E+00  0.000E+00  1.05907E+03  1.999E+00  1.200E+01  6.000E-02  1.666E+00
   1    8    6     2     5    5.7764E+01  2.9957E-01   5.7464E+01  0.000E+00  0.000E+00  0.000E+00  1.05435E+03  1.993E+00  1.200E+01  6.000E-02  1.664E+00
   1    3    5     3     1    2.0000E+00  2.8252E-01   1.7175E+00  0.000E+00  0.000E+00  0.000E+00  1.07555E+03  1.909E+00  9.636E+00  7.227E-02  1.955E+00
   1    3    6     3     2    1.7175E+00  2.4905E-01   1.4684E+00  0.000E+00  0.000E+00  0.000E+00  1.07264E+03  1.727E+00  8.909E+00  6.682E-02  1.864E+00
   1    3    7     3     3    1.4684E+00  1.9718E-01   1.2712E+00  0.000E+00  0.000E+00  0.000E+00  1.06987E+03  1.555E+00  8.218E+00  5.547E-02  1.777E+00
   1    4    8     3     4    1.2712E+00  2.2567E-01   1.0456E+00  0.000E+00  0.000E+00  0.000E+00  1.06682E+03  1.364E+00  7.455E+00  6.709E-02  1.682E+00
   1    5    8     3     5    1.0456E+00  1.5790E-01   8.8768E-01  0.000E+00  0.000E+00  0.000E+00  1.06362E+03  1.164E+00  6.655E+00  4.991E-02  1.582E+00
   1    6    8     3     6    8.8768E-01  5.5980E-02   8.3170E-01  0.000E+00  0.000E+00  0.000E+00  1.06158E+03  1.036E+00  6.145E+00  1.844E-02  1.518E+00
   1    5   10     4     1    1.0000E+01  9.0919E-02   9.9091E+00  0.000E+00  0.000E+00  0.000E+00  1.07836E+03  6.368E-01  1.000E+01  2.500E-02  1.212E+00
   1    5    9     4     2    9.9091E+00  1.8158E-01   9.7275E+00  0.000E+00  0.000E+00  0.000E+00  1.07154E+03  6.315E-01  1.000E+01  5.000E-02  1.211E+00
   1    6    8     4     3    9.7275E+00  1.2689E-01   9.6006E+00  0.000E+00  0.000E+00  0.000E+00  1.06381E+03  6.256E-01  1.000E+01  3.500E-02  1.209E+00
   1    6    8     5     1    1.0432E+01  2.2686E-01   1.0205E+01  0.000E+00  0.000E+00  0.000E+00  1.05868E+03  6.790E-01  1.542E+01  6.166E-02  1.226E+00
   1    7    7     5     2    1.0205E+01  2.7894E-01   9.9265E+00  0.000E+00  0.000E+00  0.000E+00  1.05417E+03  6.732E-01  1.519E+01  7.594E-02  1.224E+00
   1    8    7     5     3    9.9265E+00  1.9221E-01   9.7343E+00  0.000E+00  0.000E+00  0.000E+00  1.04992E+03  6.676E-01  1.497E+01  5.241E-02  1.223E+00
   1    8    6     5     4    9.7343E+00  1.3577E-01   9.5985E+00  0.000E+00  0.000E+00  0.000E+00  1.04691E+03  6.637E-01  1.482E+01  3.706E-02  1.221E+00
   1    9    6     6     1    6.7063E+01  3.1225E-01   6.6751E+01  0.000E+00  0.000E+00  0.000E+00  1.04493E+03  2.204E+00  1.200E+01  6.000E-02  1.735E+00
   1   10    7     6     2    6.6751E+01  3.1188E-01   6.6439E+01  0.000E+00  0.000E+00  0.000E+00  1.04038E+03  2.198E+00  1.200E+01  6.000E-02  1.733E+00
   1   11    7     6     3    6.6439E+01  3.1151E-01   6.6127E+01  0.000E+00  0.000E+00  0.000E+00  1.03583E+03  2.192E+00  1.200E+01  6.000E-02  1.731E+00
   1   12    7     6     4    6.6127E+01  3.1114E-01   6.5816E+01  0.000E+00  0.000E+00  0.000E+00  1.03128E+03  2.186E+00  1.200E+01  6.000E-02  1.729E+00
   1   13    7     6     5    6.5816E+01  2.3537E-02   6.5793E+01  0.000E+00  0.000E+00  0.000E+00  1.02809E+03  2.182E+00  1.200E+01  2.400E-02  3.269E-01
   1   14    9     7     1    1.5000E+02  1.3309E+00   1.4867E+02  0.000E+00  0.000E+00  0.000E+00  1.03987E+03  2.288E+00  5.529E+01  5.593E-01  7.932E-01
   1   13    8     7     2    1.4867E+02  1.8222E+00   1.4685E+02  0.000E+00  0.000E+00  0.000E+00  1.03478E+03  2.279E+00  5.526E+01  6.148E-01  9.880E-01
   1   13    7     7     3    1.4685E+02  1.4404E+00   1.4541E+02  0.000E+00  0.000E+00  0.000E+00  1.02969E+03  2.271E+00  5.522E+01  5.585E-01  8.598E-01
   1   13    6     8     1    2.1120E+02  1.0581E+00   2.1014E+02  0.000E+00  0.000E+00  0.000E+00  1.02507E+03  3.199E+00  4.639E+01  4.728E-01  7.460E-01
   1   13    5     8     2    2.1014E+02  2.5082E-01   2.0989E+02  0.000E+00  0.000E+00  0.000E+00  1.01882E+03  3.196E+00  4.634E+01  4.722E-01  1.771E-01
   1   13    4     8     3    2.0989E+02 -2.2009E+00   2.1209E+02  0.000E+00  0.000E+00  0.000E+00  1.01258E+03  3.201E+00  4.642E+01  4.730E+00 -1.551E-01
   1   13    3     8     4    2.1209E+02 -3.4623E+00   2.1555E+02  0.000E+00  0.000E+00  0.000E+00  1.00634E+03  3.217E+00  4.665E+01  4.754E+00 -2.428E-01
   1   13    2     8     5    2.1555E+02 -2.5513E+00   2.1810E+02  0.000E+00  0.000E+00  0.000E+00  1.00011E+03  3.234E+00  4.690E+01  4.779E+00 -1.780E-01
   1   13    1     8     6    2.1810E+02 -2.0018E+00   2.2011E+02  0.000E+00  0.000E+00  0.000E+00  9.95122E+02  3.247E+00  4.708E+01  2.879E+00 -2.318E-01





UNSATURATED ZONE PACKAGE VOLUMETRIC BUDGET FOR  TIME STEP    30 STRESS PERIOD   18
  ------------------------------------------------------------------------------



     CUMULATIVE VOLUMES      L**3       RATES FOR THIS TIME STEP      L**3/T
     ------------------                 ------------------------

           IN:                                      IN:
           ---                                      ---
        INFILTRATION =   622154072.4128          INFILTRATION =          11.5958

          OUT:                                     OUT:
          ----                                     ----
              UZF ET =   566736450.8007                UZF ET =          11.6075
        UZF RECHARGE =      797698.7981          UZF RECHARGE =       0.0000E+00

            IN - OUT =    54619922.8141              IN - OUT =      -1.1701E-02

          STORAGE:                                 STORAGE:
          --------                                 --------
      STORAGE CHANGE =    54620871.8680        STORAGE CHANGE =      -1.1701E-02

 PERCENT DISCREPANCY IS DIFFERENCE BETWEEN IN-OUT MINUS CHANGE IN STORAGE
 DIVIDED BY THE AVERAGE OF IN AND OUT TIMES 100

 PERCENT DISCREPANCY =          -0.00     PERCENT DISCREPANCY =           0.00






1
  VOLUMETRIC BUDGET FOR AGRICULTURAL FIELDS AT TIME STEP   30, STRESS PERIOD  18
  ------------------------------------------------------------------------------

     CUMULATIVE VOLUMES      L**3       RATES FOR THIS TIME STEP      L**3/T
     ------------------                 ------------------------

           IN:                                      IN:
           ---                                      ---
               AG WELLS  =   425021472.0000                 AG WELLS  =           7.1883
      DIVERSION SEGMENTS =           0.0000        DIVERSION SEGMENTS =           0.0000
           GW IRRIGATION =           0.0000             GW IRRIGATION =           0.0000
           SW IRRIGATION =           0.0000             SW IRRIGATION =           0.0000
        SYSTEM LOSSES GW =           0.0000          SYSTEM LOSSES GW =           0.0000
        SYSTEM LOSSES SW =           0.0000          SYSTEM LOSSES SW =           0.0000

                TOTAL IN =   425021472.0000                  TOTAL IN =           7.1883

          OUT:                                     OUT:
          ----                                     ----
               AG WELLS  =           0.0000                 AG WELLS  =           0.0000
      DIVERSION SEGMENTS =           0.0000        DIVERSION SEGMENTS =           0.0000
           GW IRRIGATION =   425021472.0000             GW IRRIGATION =           7.1883
           SW IRRIGATION =           0.0000             SW IRRIGATION =           0.0000
        SYSTEM LOSSES GW =           0.0000          SYSTEM LOSSES GW =           0.0000
        SYSTEM LOSSES SW =           0.0000          SYSTEM LOSSES SW =           0.0000

               TOTAL OUT =   425021472.0000                 TOTAL OUT =           7.1883

                IN - OUT =           0.0000                  IN - OUT =           0.0000

     PERCENT DISCREPANCY =           0.00         PERCENT DISCREPANCY =           0.00



1
  VOLUMETRIC BUDGET FOR ENTIRE MODEL AT END OF TIME STEP   30, STRESS PERIOD  18
  ------------------------------------------------------------------------------

     CUMULATIVE VOLUMES      L**3       RATES FOR THIS TIME STEP      L**3/T
     ------------------                 ------------------------

           IN:                                      IN:
           ---                                      ---
             STORAGE     =   592992448.0000               STORAGE     =           5.2595
       CONSTANT HEAD     =           0.0000         CONSTANT HEAD     =           0.0000
     HEAD DEP BOUNDS     =    12785290.0000       HEAD DEP BOUNDS     =           0.2854
      STREAM LEAKAGE     =   561732416.0000        STREAM LEAKAGE     =          13.1109
        UZF RECHARGE     =      797698.6250          UZF RECHARGE     =           0.0000
               GW ET     =           0.0000                 GW ET     =           0.0000
     SURFACE LEAKAGE     =           0.0000       SURFACE LEAKAGE     =           0.0000
           AG WELLS      =           0.0000             AG WELLS      =           0.0000

                TOTAL IN =  1168307840.0000                  TOTAL IN =          18.6558

          OUT:                                     OUT:
          ----                                     ----
             STORAGE     =   252035984.0000               STORAGE     =           0.6845
       CONSTANT HEAD     =           0.0000         CONSTANT HEAD     =           0.0000
     HEAD DEP BOUNDS     =    13199612.0000       HEAD DEP BOUNDS     =           0.2971
      STREAM LEAKAGE     =   462959808.0000        STREAM LEAKAGE     =          10.2162
        UZF RECHARGE     =           0.0000          UZF RECHARGE     =           0.0000
               GW ET     =    15091742.0000                 GW ET     =           0.2684
     SURFACE LEAKAGE     =           0.0000       SURFACE LEAKAGE     =           0.0000
           AG WELLS      =   425021472.0000             AG WELLS      =           7.1883

               TOTAL OUT =  1168308608.0000                 TOTAL OUT =          18.6545

                IN - OUT =        -768.0000                  IN - OUT =       1.3142E-03

     PERCENT DISCREPANCY =          -0.00         PERCENT DISCREPANCY =           0.01






         TIME SUMMARY AT END OF TIME STEP   30 IN STRESS PERIOD   18
                    SECONDS     MINUTES      HOURS       DAYS        YEARS
                    -----------------------------------------------------------
   TIME STEP LENGTH  87667.      1461.1      24.352      1.0147     2.77799E-03
 STRESS PERIOD TIME 2.63000E+06  43833.      730.56      30.440     8.33397E-02
         TOTAL TIME 4.47965E+07 7.46608E+05  12443.      518.48      1.4195    
1
1
                            STRESS PERIOD NO.   19, LENGTH =   2630000.    
                            -----------------------------------------------

                              NUMBER OF TIME STEPS =    30

                               MULTIPLIER FOR DELT =     1.000

                            INITIAL TIME STEP SIZE =   87666.66    

 REUSING NON-PARAMETER GHB CELLS FROM LAST STRESS PERIOD

      2 GHB CELLS

 REUSING STREAM SEGMENT DATA FROM LAST STRESS PERIOD



            AREAL INFILTRATION RATE
 READING ON UNIT   19 WITH FORMAT: (10F4.0)            

            1           2           3           4           5           6           7           8           9          10
 ........................................................................................................................
   1   1.2000E-09   0.000       0.000       0.000       0.000       0.000       0.000       0.000       0.000       0.000    
   2   2.1000E-09  2.0000E-09  8.0000E-10  8.5000E-09   0.000       0.000       0.000       0.000       0.000       0.000    
   3   5.0000E-10  1.1000E-09  8.8000E-09  5.5000E-09   0.000       0.000       0.000       0.000       0.000       0.000    
   4   8.5000E-09  1.1000E-09  1.1000E-09  1.1000E-09  2.0000E-09   0.000       0.000       0.000       0.000       0.000    
   5   8.5000E-09  1.1000E-09  1.1000E-09  1.1000E-09  1.1000E-09   0.000       0.000       0.000       0.000       0.000    
   6   8.5000E-09  5.2000E-09  2.1000E-09  1.1000E-09  1.5000E-09   0.000       0.000       0.000       0.000       0.000    
   7   8.5000E-09  5.2000E-09  2.1000E-09  1.2000E-09  2.0000E-09   0.000       0.000       0.000       0.000       0.000    
   8   5.0000E-10  5.2000E-09  2.1000E-09  1.2000E-09  5.0000E-09   0.000       0.000       0.000       0.000       0.000    
   9   5.0000E-10  5.2000E-09  2.1000E-09  1.2000E-09  5.0000E-09   0.000       0.000       0.000       0.000       0.000    
  10   5.0000E-10  5.2000E-09  2.1000E-09  1.2000E-09  5.8000E-09   0.000       0.000       0.000       0.000       0.000    
  11   1.0000E-10  1.1000E-09  1.1000E-09  1.2000E-09  5.0000E-09   0.000       0.000       0.000       0.000       0.000    
  12   1.1000E-09  1.1000E-09  1.1000E-09  1.1000E-09  2.0000E-09   0.000       0.000       0.000       0.000       0.000    
  13   1.1000E-09  2.2000E-09  2.2000E-09  2.1000E-09  1.0000E-09   0.000       0.000       0.000       0.000       0.000    
  14   2.0000E-10  5.5000E-09  5.5000E-09  5.2000E-09  1.0000E-09   0.000       0.000       0.000       0.000       0.000    
  15    0.000      8.8000E-09  8.8000E-09   0.000       0.000       0.000       0.000       0.000       0.000       0.000    

                  ET RATE =  1.500000E-07

 USING ET EXTINCTION DEPTH FROM PREVIOUS STRESS PERIOD. CURRENT PERIOD IS:      19

 USING EXTINCTION WATER CONTENT FROM PREVIOUS STRESS PERIOD. CURRENT PERIOD IS:      19

 USING AIR ENTRY PRESSURE FROM PREVIOUS STRESS PERIOD. CURRENT PERIOD IS:      19

 USING ROOT PRESSURE HEAD FROM PREVIOUS STRESS PERIOD. CURRENT PERIOD IS:      19

 USING ROOT ACTIVITY FROM PREVIOUS STRESS PERIOD. CURRENT PERIOD IS:      19

 PROCESSING AG STRESS PERIOD DATA

 READING AG STRESS PERIOD DATA

 READING IRRIGATION WELL

 END PROCESSING AG STRESS PERIOD DATA OPTIONS
 
 SOLVING FOR HEAD 
                                                   Max.-Head-Change                         Max.-Flux-Residual
  Residual-Control   Outer-Iter.   Inner-Iter.     Column Row Layer    Maximum-Head-Change  Column Row Layer    Maximum-Flux-Residual          L2-NORM 
          0                 1           2             4    7     1      -0.5733419621E-01       4    7    1        -0.2997370455E+01      0.7141638157E+01
          0                 2           2             4    7     1       0.5577022603E-02       4    7    1         0.2997351059E+00      0.7140568087E+00
          0                 3           2             4    7     1      -0.3797791474E-03       4    7    1        -0.2098172099E-01      0.4997581366E-01
          0                 4           1             4    7     1       0.1510756272E-04       4    7    1         0.8579150963E-03      0.2042899068E-02

    ------------------------------------------------
       NWT REQUIRED            4 OUTER ITERATIONS 
       AND A TOTAL OF          7 INNER ITERATIONS.
    ------------------------------------------------

 OUTPUT CONTROL FOR STRESS PERIOD   19   TIME STEP    1
    PRINT BUDGET
    SAVE BUDGET
 UBDSV1 SAVING "         STORAGE" ON UNIT 102 AT TIME STEP  1, STRESS PERIOD  19
 UBDSV2 SAVING "   CONSTANT HEAD" ON UNIT 102 AT TIME STEP  1, STRESS PERIOD  19
 UBDSV1 SAVING "FLOW RIGHT FACE " ON UNIT 102 AT TIME STEP  1, STRESS PERIOD  19
 UBDSV1 SAVING "FLOW FRONT FACE " ON UNIT 102 AT TIME STEP  1, STRESS PERIOD  19

  HEAD DEP BOUNDS   PERIOD   19   STEP     1
 BOUNDARY      1   LAYER   1   ROW    13   COL     1   RATE   -0.297001    
 BOUNDARY      2   LAYER   1   ROW    14   COL     9   RATE    0.285428    



 STREAM LISTING     PERIOD     19   STEP        1

 LAYER ROW COL. STREAM  RCH.  FLOW INTO     FLOW TO   FLOW OUT OF   OVRLND.     DIRECT     STREAM       STREAM     STREAM     STREAM   STREAMBED  STREAMBED
                SEG.NO.  NO.  STRM. RCH.    AQUIFER    STRM. RCH.    RUNOFF     PRECIP       ET          HEAD       DEPTH      WIDTH   CONDCTNC.   GRADIENT

   1    1    1     1     1    5.8202E+01  3.6567E-01   5.7837E+01  0.000E+00  0.000E+00  0.000E+00  1.09455E+03  1.503E+00  1.804E+01  8.120E-02  1.501E+00
   1    2    2     1     2    5.7837E+01  5.6626E-01   5.7270E+01  0.000E+00  0.000E+00  0.000E+00  1.08956E+03  1.498E+00  1.799E+01  1.259E-01  1.499E+00
   1    3    3     1     3    5.7270E+01  4.8288E-01   5.6788E+01  0.000E+00  0.000E+00  0.000E+00  1.08391E+03  1.491E+00  1.792E+01  1.075E-01  1.497E+00
   1    3    4     1     4    5.6788E+01  4.4463E-01   5.6343E+01  0.000E+00  0.000E+00  0.000E+00  1.07889E+03  1.485E+00  1.786E+01  9.913E-02  1.495E+00
   1    4    5     2     1    5.4343E+01  3.8376E-01   5.3959E+01  0.000E+00  0.000E+00  0.000E+00  1.07385E+03  1.920E+00  1.200E+01  7.800E-02  1.640E+00
   1    5    6     2     2    5.3959E+01  2.9477E-01   5.3664E+01  0.000E+00  0.000E+00  0.000E+00  1.06842E+03  1.913E+00  1.200E+01  6.000E-02  1.638E+00
   1    6    6     2     3    5.3664E+01  2.9439E-01   5.3370E+01  0.000E+00  0.000E+00  0.000E+00  1.06370E+03  1.907E+00  1.200E+01  6.000E-02  1.636E+00
   1    7    6     2     4    5.3370E+01  2.9401E-01   5.3076E+01  0.000E+00  0.000E+00  0.000E+00  1.05898E+03  1.900E+00  1.200E+01  6.000E-02  1.633E+00
   1    8    6     2     5    5.3076E+01  2.9364E-01   5.2782E+01  0.000E+00  0.000E+00  0.000E+00  1.05425E+03  1.894E+00  1.200E+01  6.000E-02  1.631E+00
   1    3    5     3     1    2.0000E+00  2.8252E-01   1.7175E+00  0.000E+00  0.000E+00  0.000E+00  1.07555E+03  1.909E+00  9.636E+00  7.227E-02  1.955E+00
   1    3    6     3     2    1.7175E+00  2.4905E-01   1.4684E+00  0.000E+00  0.000E+00  0.000E+00  1.07264E+03  1.727E+00  8.909E+00  6.682E-02  1.864E+00
   1    3    7     3     3    1.4684E+00  1.9718E-01   1.2712E+00  0.000E+00  0.000E+00  0.000E+00  1.06987E+03  1.555E+00  8.218E+00  5.547E-02  1.777E+00
   1    4    8     3     4    1.2712E+00  2.2567E-01   1.0456E+00  0.000E+00  0.000E+00  0.000E+00  1.06682E+03  1.364E+00  7.455E+00  6.709E-02  1.682E+00
   1    5    8     3     5    1.0456E+00  1.5790E-01   8.8768E-01  0.000E+00  0.000E+00  0.000E+00  1.06362E+03  1.164E+00  6.655E+00  4.991E-02  1.582E+00
   1    6    8     3     6    8.8768E-01  5.5980E-02   8.3170E-01  0.000E+00  0.000E+00  0.000E+00  1.06158E+03  1.036E+00  6.145E+00  1.844E-02  1.518E+00
   1    5   10     4     1    1.0000E+01  9.0919E-02   9.9091E+00  0.000E+00  0.000E+00  0.000E+00  1.07836E+03  6.368E-01  1.000E+01  2.500E-02  1.212E+00
   1    5    9     4     2    9.9091E+00  1.8158E-01   9.7275E+00  0.000E+00  0.000E+00  0.000E+00  1.07154E+03  6.315E-01  1.000E+01  5.000E-02  1.211E+00
   1    6    8     4     3    9.7275E+00  1.2689E-01   9.6006E+00  0.000E+00  0.000E+00  0.000E+00  1.06381E+03  6.256E-01  1.000E+01  3.500E-02  1.209E+00
   1    6    8     5     1    1.0432E+01  2.2686E-01   1.0205E+01  0.000E+00  0.000E+00  0.000E+00  1.05868E+03  6.790E-01  1.542E+01  6.166E-02  1.226E+00
   1    7    7     5     2    1.0205E+01  2.7894E-01   9.9265E+00  0.000E+00  0.000E+00  0.000E+00  1.05417E+03  6.732E-01  1.519E+01  7.594E-02  1.224E+00
   1    8    7     5     3    9.9265E+00  1.9221E-01   9.7343E+00  0.000E+00  0.000E+00  0.000E+00  1.04992E+03  6.676E-01  1.497E+01  5.241E-02  1.223E+00
   1    8    6     5     4    9.7343E+00  1.3577E-01   9.5985E+00  0.000E+00  0.000E+00  0.000E+00  1.04691E+03  6.637E-01  1.482E+01  3.706E-02  1.221E+00
   1    9    6     6     1    6.2381E+01  3.0662E-01   6.2074E+01  0.000E+00  0.000E+00  0.000E+00  1.04484E+03  2.110E+00  1.200E+01  6.000E-02  1.703E+00
   1   10    7     6     2    6.2074E+01  3.0625E-01   6.1768E+01  0.000E+00  0.000E+00  0.000E+00  1.04029E+03  2.104E+00  1.200E+01  6.000E-02  1.701E+00
   1   11    7     6     3    6.1768E+01  3.0587E-01   6.1462E+01  0.000E+00  0.000E+00  0.000E+00  1.03573E+03  2.098E+00  1.200E+01  6.000E-02  1.699E+00
   1   12    7     6     4    6.1462E+01  3.0550E-01   6.1157E+01  0.000E+00  0.000E+00  0.000E+00  1.03118E+03  2.092E+00  1.200E+01  6.000E-02  1.697E+00
   1   13    7     6     5    6.1157E+01  2.1289E-02   6.1135E+01  0.000E+00  0.000E+00  0.000E+00  1.02800E+03  2.088E+00  1.200E+01  2.400E-02  2.957E-01
   1   14    9     7     1    1.5000E+02  1.3310E+00   1.4867E+02  0.000E+00  0.000E+00  0.000E+00  1.03987E+03  2.288E+00  5.529E+01  5.593E-01  7.932E-01
   1   13    8     7     2    1.4867E+02  1.8223E+00   1.4685E+02  0.000E+00  0.000E+00  0.000E+00  1.03478E+03  2.279E+00  5.526E+01  6.148E-01  9.880E-01
   1   13    7     7     3    1.4685E+02  1.4406E+00   1.4541E+02  0.000E+00  0.000E+00  0.000E+00  1.02969E+03  2.271E+00  5.522E+01  5.585E-01  8.599E-01
   1   13    6     8     1    2.0654E+02  1.0372E+00   2.0550E+02  0.000E+00  0.000E+00  0.000E+00  1.02505E+03  3.173E+00  4.601E+01  4.688E-01  7.374E-01
   1   13    5     8     2    2.0550E+02  2.3667E-01   2.0527E+02  0.000E+00  0.000E+00  0.000E+00  1.01879E+03  3.169E+00  4.595E+01  4.683E-01  1.685E-01
   1   13    4     8     3    2.0527E+02 -2.2844E+00   2.0755E+02  0.000E+00  0.000E+00  0.000E+00  1.01255E+03  3.175E+00  4.604E+01  4.691E+00 -1.623E-01
   1   13    3     8     4    2.0755E+02 -3.5248E+00   2.1108E+02  0.000E+00  0.000E+00  0.000E+00  1.00632E+03  3.192E+00  4.628E+01  4.716E+00 -2.491E-01
   1   13    2     8     5    2.1108E+02 -2.6404E+00   2.1372E+02  0.000E+00  0.000E+00  0.000E+00  1.00008E+03  3.209E+00  4.653E+01  4.742E+00 -1.856E-01
   1   13    1     8     6    2.1372E+02 -2.0521E+00   2.1577E+02  0.000E+00  0.000E+00  0.000E+00  9.95098E+02  3.223E+00  4.673E+01  2.857E+00 -2.394E-01



 UBDSV3 SAVING "           GW ET" ON UNIT  61 AT TIME STEP  1, STRESS PERIOD  19
 UBDSV3 SAVING "    UZF RECHARGE" ON UNIT  61 AT TIME STEP  1, STRESS PERIOD  19
 UBDSV3 SAVING " SURFACE LEAKAGE" ON UNIT  61 AT TIME STEP  1, STRESS PERIOD  19
 UBDSV3 SAVING "       HORT+DUNN" ON UNIT  61 AT TIME STEP  1, STRESS PERIOD  19
 UBDSV3 SAVING "  STORAGE CHANGE" ON UNIT  61 AT TIME STEP  1, STRESS PERIOD  19


UNSATURATED ZONE PACKAGE VOLUMETRIC BUDGET FOR  TIME STEP     1 STRESS PERIOD   19
  ------------------------------------------------------------------------------



     CUMULATIVE VOLUMES      L**3       RATES FOR THIS TIME STEP      L**3/T
     ------------------                 ------------------------

           IN:                                      IN:
           ---                                      ---
        INFILTRATION =   624485690.0759          INFILTRATION =          26.5964

          OUT:                                     OUT:
          ----                                     ----
              UZF ET =   569069041.6200                UZF ET =          26.6075
        UZF RECHARGE =      797698.7981          UZF RECHARGE =       0.0000E+00

            IN - OUT =    54618949.6579              IN - OUT =      -1.1100E-02

          STORAGE:                                 STORAGE:
          --------                                 --------
      STORAGE CHANGE =    54619898.6975        STORAGE CHANGE =      -1.1101E-02

 PERCENT DISCREPANCY IS DIFFERENCE BETWEEN IN-OUT MINUS CHANGE IN STORAGE
 DIVIDED BY THE AVERAGE OF IN AND OUT TIMES 100

 PERCENT DISCREPANCY =          -0.00     PERCENT DISCREPANCY =           0.00






 

            AG WELLS      PERIOD   19   STEP   1
 AG WELL      1   LAYER   1   ROW     6   COL     4   RATE    -3.72010    
 AG WELL      2   LAYER   1   ROW     6   COL     5   RATE    -3.71046    
 AG WELL      3   LAYER   1   ROW     7   COL     4   RATE    -3.71766    
 AG WELL      4   LAYER   1   ROW     7   COL     5   RATE    -3.69835    
 AG WELL      5   LAYER   1   ROW     8   COL     4   RATE    -3.71766    
 AG WELL      6   LAYER   1   ROW     8   COL     5   RATE    -3.62467    
 
 

        GW IRRIGATION     PERIOD   19   STEP   1
 AG WELL      1   ROW     6   COL     4   RATE     3.72010    
 AG WELL      2   ROW     6   COL     5   RATE     3.71046    
 AG WELL      3   ROW     7   COL     4   RATE     3.71766    
 AG WELL      4   ROW     7   COL     5   RATE     3.69835    
 AG WELL      5   ROW     8   COL     4   RATE     3.71766    
 AG WELL      6   ROW     8   COL     5   RATE     3.62467    
 
1
  VOLUMETRIC BUDGET FOR AGRICULTURAL FIELDS AT TIME STEP    1, STRESS PERIOD  19
  ------------------------------------------------------------------------------

     CUMULATIVE VOLUMES      L**3       RATES FOR THIS TIME STEP      L**3/T
     ------------------                 ------------------------

           IN:                                      IN:
           ---                                      ---
               AG WELLS  =   426966688.0000                 AG WELLS  =          22.1889
      DIVERSION SEGMENTS =           0.0000        DIVERSION SEGMENTS =           0.0000
           GW IRRIGATION =           0.0000             GW IRRIGATION =           0.0000
           SW IRRIGATION =           0.0000             SW IRRIGATION =           0.0000
        SYSTEM LOSSES GW =           0.0000          SYSTEM LOSSES GW =           0.0000
        SYSTEM LOSSES SW =           0.0000          SYSTEM LOSSES SW =           0.0000

                TOTAL IN =   426966688.0000                  TOTAL IN =          22.1889

          OUT:                                     OUT:
          ----                                     ----
               AG WELLS  =           0.0000                 AG WELLS  =           0.0000
      DIVERSION SEGMENTS =           0.0000        DIVERSION SEGMENTS =           0.0000
           GW IRRIGATION =   426966688.0000             GW IRRIGATION =          22.1889
           SW IRRIGATION =           0.0000             SW IRRIGATION =           0.0000
        SYSTEM LOSSES GW =           0.0000          SYSTEM LOSSES GW =           0.0000
        SYSTEM LOSSES SW =           0.0000          SYSTEM LOSSES SW =           0.0000

               TOTAL OUT =   426966688.0000                 TOTAL OUT =          22.1889

                IN - OUT =           0.0000                  IN - OUT =           0.0000

     PERCENT DISCREPANCY =           0.00         PERCENT DISCREPANCY =           0.00



1
  VOLUMETRIC BUDGET FOR ENTIRE MODEL AT END OF TIME STEP    1, STRESS PERIOD  19
  ------------------------------------------------------------------------------

     CUMULATIVE VOLUMES      L**3       RATES FOR THIS TIME STEP      L**3/T
     ------------------                 ------------------------

           IN:                                      IN:
           ---                                      ---
             STORAGE     =   594842176.0000               STORAGE     =          21.0998
       CONSTANT HEAD     =           0.0000         CONSTANT HEAD     =           0.0000
     HEAD DEP BOUNDS     =    12810313.0000       HEAD DEP BOUNDS     =           0.2854
      STREAM LEAKAGE     =   562866368.0000        STREAM LEAKAGE     =          12.9347
        UZF RECHARGE     =      797698.6250          UZF RECHARGE     =           0.0000
               GW ET     =           0.0000                 GW ET     =           0.0000
     SURFACE LEAKAGE     =           0.0000       SURFACE LEAKAGE     =           0.0000
           AG WELLS      =           0.0000             AG WELLS      =           0.0000

                TOTAL IN =  1171316480.0000                  TOTAL IN =          34.3199

          OUT:                                     OUT:
          ----                                     ----
             STORAGE     =   252087264.0000               STORAGE     =           0.5850
       CONSTANT HEAD     =           0.0000         CONSTANT HEAD     =           0.0000
     HEAD DEP BOUNDS     =    13225649.0000       HEAD DEP BOUNDS     =           0.2970
      STREAM LEAKAGE     =   463880448.0000        STREAM LEAKAGE     =          10.5017
        UZF RECHARGE     =           0.0000          UZF RECHARGE     =           0.0000
               GW ET     =    15157266.0000                 GW ET     =           0.7474
     SURFACE LEAKAGE     =           0.0000       SURFACE LEAKAGE     =           0.0000
           AG WELLS      =   426966688.0000             AG WELLS      =          22.1889

               TOTAL OUT =  1171317248.0000                 TOTAL OUT =          34.3200

                IN - OUT =        -768.0000                  IN - OUT =      -6.8665E-05

     PERCENT DISCREPANCY =          -0.00         PERCENT DISCREPANCY =          -0.00






         TIME SUMMARY AT END OF TIME STEP    1 IN STRESS PERIOD   19
                    SECONDS     MINUTES      HOURS       DAYS        YEARS
                    -----------------------------------------------------------
   TIME STEP LENGTH  87667.      1461.1      24.352      1.0147     2.77799E-03
 STRESS PERIOD TIME  87667.      1461.1      24.352      1.0147     2.77799E-03
         TOTAL TIME 4.48841E+07 7.48069E+05  12468.      519.49      1.4223    
1
 
 SOLVING FOR HEAD 
                                                   Max.-Head-Change                         Max.-Flux-Residual
  Residual-Control   Outer-Iter.   Inner-Iter.     Column Row Layer    Maximum-Head-Change  Column Row Layer    Maximum-Flux-Residual          L2-NORM 
          0                 1           2             4    7     1      -0.5665651726E-01       4    7    1        -0.2963165532E+01      0.6958006255E+01
          0                 2           2             4    7     1       0.5511100691E-02       4    7    1         0.2963144584E+00      0.6957183500E+00
          0                 3           2             4    7     1      -0.3752901313E-03       4    7    1        -0.2074227704E-01      0.4869403642E-01
          0                 4           1             4    7     1       0.1492894017E-04       4    7    1         0.8481217994E-03      0.1990497849E-02

    ------------------------------------------------
       NWT REQUIRED            4 OUTER ITERATIONS 
       AND A TOTAL OF          7 INNER ITERATIONS.
    ------------------------------------------------

 NO OUTPUT CONTROL FOR STRESS PERIOD   19   TIME STEP    2
 
 SOLVING FOR HEAD 
                                                   Max.-Head-Change                         Max.-Flux-Residual
  Residual-Control   Outer-Iter.   Inner-Iter.     Column Row Layer    Maximum-Head-Change  Column Row Layer    Maximum-Flux-Residual          L2-NORM 
          0                 1           2             4    7     1      -0.5627710784E-01       4    7    1        -0.2944383020E+01      0.6840077628E+01
          0                 2           2             4    7     1       0.5474192408E-02       4    7    1         0.2944360611E+00      0.6839459548E+00
          0                 3           2             4    7     1      -0.3727768344E-03       4    7    1        -0.2061079054E-01      0.4787188510E-01
          0                 4           1             4    7     1       0.1482893389E-04       4    7    1         0.8427440023E-03      0.1957075503E-02

    ------------------------------------------------
       NWT REQUIRED            4 OUTER ITERATIONS 
       AND A TOTAL OF          7 INNER ITERATIONS.
    ------------------------------------------------

 NO OUTPUT CONTROL FOR STRESS PERIOD   19   TIME STEP    3
 
 SOLVING FOR HEAD 
                                                   Max.-Head-Change                         Max.-Flux-Residual
  Residual-Control   Outer-Iter.   Inner-Iter.     Column Row Layer    Maximum-Head-Change  Column Row Layer    Maximum-Flux-Residual          L2-NORM 
          0                 1           2             4    7     1      -0.5588099741E-01       4    7    1        -0.2924638914E+01      0.6728828304E+01
          0                 2           2             4    7     1       0.5435659829E-02       4    7    1         0.2924615219E+00      0.6728358278E+00
          0                 3           2             4    7     1      -0.3701529268E-03       4    7    1        -0.2047257397E-01      0.4709647589E-01
          0                 4           1             4    7     1       0.1472452617E-04       4    7    1         0.8370909336E-03      0.1926752950E-02

    ------------------------------------------------
       NWT REQUIRED            4 OUTER ITERATIONS 
       AND A TOTAL OF          7 INNER ITERATIONS.
    ------------------------------------------------

 NO OUTPUT CONTROL FOR STRESS PERIOD   19   TIME STEP    4
 
 SOLVING FOR HEAD 
                                                   Max.-Head-Change                         Max.-Flux-Residual
  Residual-Control   Outer-Iter.   Inner-Iter.     Column Row Layer    Maximum-Head-Change  Column Row Layer    Maximum-Flux-Residual          L2-NORM 
          0                 1           2             4    7     1      -0.5547008180E-01       4    7    1        -0.2904038382E+01      0.6623377169E+01
          0                 2           2             4    7     1       0.5395687343E-02       4    7    1         0.2904013561E+00      0.6623034646E+00
          0                 3           2             4    7     1      -0.3674309644E-03       4    7    1        -0.2032836335E-01      0.4635915934E-01
          0                 4           1             4    7     1       0.1461621677E-04       4    7    1         0.8311927147E-03      0.1895348079E-02

    ------------------------------------------------
       NWT REQUIRED            4 OUTER ITERATIONS 
       AND A TOTAL OF          7 INNER ITERATIONS.
    ------------------------------------------------

 NO OUTPUT CONTROL FOR STRESS PERIOD   19   TIME STEP    5
 
 SOLVING FOR HEAD 
                                                   Max.-Head-Change                         Max.-Flux-Residual
  Residual-Control   Outer-Iter.   Inner-Iter.     Column Row Layer    Maximum-Head-Change  Column Row Layer    Maximum-Flux-Residual          L2-NORM 
          0                 1           2             4    7     1      -0.5504572269E-01       4    7    1        -0.2882656683E+01      0.6523050666E+01
          0                 2           2             4    7     1       0.5354407391E-02       4    7    1         0.2882630885E+00      0.6522762767E+00
          0                 3           2             4    7     1      -0.3646199665E-03       4    7    1        -0.2017868550E-01      0.4565797354E-01
          0                 4           1             4    7     1       0.1450436409E-04       4    7    1         0.8250708729E-03      0.1866719118E-02

    ------------------------------------------------
       NWT REQUIRED            4 OUTER ITERATIONS 
       AND A TOTAL OF          7 INNER ITERATIONS.
    ------------------------------------------------

 NO OUTPUT CONTROL FOR STRESS PERIOD   19   TIME STEP    6
 
 SOLVING FOR HEAD 
                                                   Max.-Head-Change                         Max.-Flux-Residual
  Residual-Control   Outer-Iter.   Inner-Iter.     Column Row Layer    Maximum-Head-Change  Column Row Layer    Maximum-Flux-Residual          L2-NORM 
          0                 1           2             4    7     1      -0.5460960425E-01       4    7    1        -0.2860587221E+01      0.6427328437E+01
          0                 2           2             4    7     1       0.5311983775E-02       4    7    1         0.2860560583E+00      0.6427096774E+00
          0                 3           2             4    7     1      -0.3617310868E-03       4    7    1        -0.2002419409E-01      0.4498877345E-01
          0                 4           1             4    7     1       0.1438941275E-04       4    7    1         0.8187521614E-03      0.1839378219E-02

    ------------------------------------------------
       NWT REQUIRED            4 OUTER ITERATIONS 
       AND A TOTAL OF          7 INNER ITERATIONS.
    ------------------------------------------------

 NO OUTPUT CONTROL FOR STRESS PERIOD   19   TIME STEP    7
 
 SOLVING FOR HEAD 
                                                   Max.-Head-Change                         Max.-Flux-Residual
  Residual-Control   Outer-Iter.   Inner-Iter.     Column Row Layer    Maximum-Head-Change  Column Row Layer    Maximum-Flux-Residual          L2-NORM 
          0                 1           2             4    7     1      -0.5416303284E-01       4    7    1        -0.2837902122E+01      0.6335791498E+01
          0                 2           2             4    7     1       0.5268543554E-02       4    7    1         0.2837874770E+00      0.6335601268E+00
          0                 3           2             4    7     1      -0.3587729784E-03       4    7    1        -0.1986539401E-01      0.4434878330E-01
          0                 4           1             4    7     1       0.1427170709E-04       4    7    1         0.8122572153E-03      0.1813343046E-02

    ------------------------------------------------
       NWT REQUIRED            4 OUTER ITERATIONS 
       AND A TOTAL OF          7 INNER ITERATIONS.
    ------------------------------------------------

 NO OUTPUT CONTROL FOR STRESS PERIOD   19   TIME STEP    8
 
 SOLVING FOR HEAD 
                                                   Max.-Head-Change                         Max.-Flux-Residual
  Residual-Control   Outer-Iter.   Inner-Iter.     Column Row Layer    Maximum-Head-Change  Column Row Layer    Maximum-Flux-Residual          L2-NORM 
          0                 1           2             4    7     1      -0.5370748648E-01       4    7    1        -0.2814683603E+01      0.6248088274E+01
          0                 2           2             4    7     1       0.5224230483E-02       4    7    1         0.2814655650E+00      0.6247929392E+00
          0                 3           2             4    7     1      -0.3557554304E-03       4    7    1        -0.1970286066E-01      0.4373522260E-01
          0                 4           1             4    7     1       0.1415163545E-04       4    7    1         0.8056095860E-03      0.1788128133E-02

    ------------------------------------------------
       NWT REQUIRED            4 OUTER ITERATIONS 
       AND A TOTAL OF          7 INNER ITERATIONS.
    ------------------------------------------------

 NO OUTPUT CONTROL FOR STRESS PERIOD   19   TIME STEP    9
 
 SOLVING FOR HEAD 
                                                   Max.-Head-Change                         Max.-Flux-Residual
  Residual-Control   Outer-Iter.   Inner-Iter.     Column Row Layer    Maximum-Head-Change  Column Row Layer    Maximum-Flux-Residual          L2-NORM 
          0                 1           2             4    7     1      -0.5324409034E-01       4    7    1        -0.2790993818E+01      0.6163932426E+01
          0                 2           2             4    7     1       0.5179153995E-02       4    7    1         0.2790965371E+00      0.6163797118E+00
          0                 3           2             4    7     1      -0.3526858958E-03       4    7    1        -0.1953702913E-01      0.4314648874E-01
          0                 4           1             4    7     1       0.1402949601E-04       4    7    1         0.7988270656E-03      0.1764069096E-02

    ------------------------------------------------
       NWT REQUIRED            4 OUTER ITERATIONS 
       AND A TOTAL OF          7 INNER ITERATIONS.
    ------------------------------------------------

 NO OUTPUT CONTROL FOR STRESS PERIOD   19   TIME STEP   10
 
 SOLVING FOR HEAD 
                                                   Max.-Head-Change                         Max.-Flux-Residual
  Residual-Control   Outer-Iter.   Inner-Iter.     Column Row Layer    Maximum-Head-Change  Column Row Layer    Maximum-Flux-Residual          L2-NORM 
          0                 1           2             4    7     1      -0.5277400824E-01       4    7    1        -0.2766897990E+01      0.6083057294E+01
          0                 2           2             4    7     1       0.5133427287E-02       4    7    1         0.2766869146E+00      0.6082940010E+00
          0                 3           2             4    7     1      -0.3495720817E-03       4    7    1        -0.1936835585E-01      0.4258064448E-01
          0                 4           1             4    7     1       0.1390559453E-04       4    7    1         0.7919283187E-03      0.1740946488E-02

    ------------------------------------------------
       NWT REQUIRED            4 OUTER ITERATIONS 
       AND A TOTAL OF          7 INNER ITERATIONS.
    ------------------------------------------------

 NO OUTPUT CONTROL FOR STRESS PERIOD   19   TIME STEP   11
 
 SOLVING FOR HEAD 
                                                   Max.-Head-Change                         Max.-Flux-Residual
  Residual-Control   Outer-Iter.   Inner-Iter.     Column Row Layer    Maximum-Head-Change  Column Row Layer    Maximum-Flux-Residual          L2-NORM 
          0                 1           2             4    7     1      -0.5229832678E-01       4    7    1        -0.2742456463E+01      0.6005245179E+01
          0                 2           2             4    7     1       0.5087156041E-02       4    7    1         0.2742427310E+00      0.6005141906E+00
          0                 3           2             4    7     1      -0.3464211852E-03       4    7    1        -0.1919726321E-01      0.4203617528E-01
          0                 4           1             4    7     1       0.1378021724E-04       4    7    1         0.7849306153E-03      0.1718690349E-02

    ------------------------------------------------
       NWT REQUIRED            4 OUTER ITERATIONS 
       AND A TOTAL OF          7 INNER ITERATIONS.
    ------------------------------------------------

 NO OUTPUT CONTROL FOR STRESS PERIOD   19   TIME STEP   12
 
 SOLVING FOR HEAD 
                                                   Max.-Head-Change                         Max.-Flux-Residual
  Residual-Control   Outer-Iter.   Inner-Iter.     Column Row Layer    Maximum-Head-Change  Column Row Layer    Maximum-Flux-Residual          L2-NORM 
          0                 1           2             4    7     1      -0.5181806139E-01       4    7    1        -0.2717725816E+01      0.5930309234E+01
          0                 2           2             4    7     1       0.5040439020E-02       4    7    1         0.2717696434E+00      0.5930216800E+00
          0                 3           2             4    7     1      -0.3432399325E-03       4    7    1        -0.1902414722E-01      0.4151176137E-01
          0                 4           1             4    7     1       0.1365363248E-04       4    7    1         0.7778501802E-03      0.1697233351E-02

    ------------------------------------------------
       NWT REQUIRED            4 OUTER ITERATIONS 
       AND A TOTAL OF          7 INNER ITERATIONS.
    ------------------------------------------------

 NO OUTPUT CONTROL FOR STRESS PERIOD   19   TIME STEP   13
 
 SOLVING FOR HEAD 
                                                   Max.-Head-Change                         Max.-Flux-Residual
  Residual-Control   Outer-Iter.   Inner-Iter.     Column Row Layer    Maximum-Head-Change  Column Row Layer    Maximum-Flux-Residual          L2-NORM 
          0                 1           2             4    7     1      -0.5133400270E-01       4    7    1        -0.2692750630E+01      0.5858053830E+01
          0                 2           2             4    7     1       0.4993353130E-02       4    7    1         0.2692721091E+00      0.5857970728E+00
          0                 3           2             4    7     1      -0.3400335542E-03       4    7    1        -0.1884931990E-01      0.4100610747E-01
          0                 4           1             4    7     1       0.1352604750E-04       4    7    1         0.7706997108E-03      0.1676571070E-02

    ------------------------------------------------
       NWT REQUIRED            4 OUTER ITERATIONS 
       AND A TOTAL OF          7 INNER ITERATIONS.
    ------------------------------------------------

 NO OUTPUT CONTROL FOR STRESS PERIOD   19   TIME STEP   14
 
 SOLVING FOR HEAD 
                                                   Max.-Head-Change                         Max.-Flux-Residual
  Residual-Control   Outer-Iter.   Inner-Iter.     Column Row Layer    Maximum-Head-Change  Column Row Layer    Maximum-Flux-Residual          L2-NORM 
          0                 1           2             4    7     1      -0.5084730539E-01       4    7    1        -0.2667594674E+01      0.5788343464E+01
          0                 2           2             4    7     1       0.4946011178E-02       4    7    1         0.2667565045E+00      0.5788275754E+00
          0                 3           2             4    7     1      -0.3368097441E-03       4    7    1        -0.1867322758E-01      0.4051829068E-01
          0                 4           1             4    7     1       0.1339776945E-04       4    7    1         0.7634975393E-03      0.1656609216E-02

    ------------------------------------------------
       NWT REQUIRED            4 OUTER ITERATIONS 
       AND A TOTAL OF          7 INNER ITERATIONS.
    ------------------------------------------------

 NO OUTPUT CONTROL FOR STRESS PERIOD   19   TIME STEP   15
 
 SOLVING FOR HEAD 
                                                   Max.-Head-Change                         Max.-Flux-Residual
  Residual-Control   Outer-Iter.   Inner-Iter.     Column Row Layer    Maximum-Head-Change  Column Row Layer    Maximum-Flux-Residual          L2-NORM 
          0                 1           2             4    7     1      -0.5035849036E-01       4    7    1        -0.2642287663E+01      0.5721022128E+01
          0                 2           2             4    7     1       0.4898473901E-02       4    7    1         0.2642258004E+00      0.5725346284E+00
          0                 3           2             4    7     1      -0.3335726320E-03       4    7    1        -0.1849607825E-01      0.4007782840E-01
          0                 4           1             4    7     1       0.1326896135E-04       4    7    1         0.7562521125E-03      0.1638608706E-02

    ------------------------------------------------
       NWT REQUIRED            4 OUTER ITERATIONS 
       AND A TOTAL OF          7 INNER ITERATIONS.
    ------------------------------------------------

 NO OUTPUT CONTROL FOR STRESS PERIOD   19   TIME STEP   16
 
 SOLVING FOR HEAD 
                                                   Max.-Head-Change                         Max.-Flux-Residual
  Residual-Control   Outer-Iter.   Inner-Iter.     Column Row Layer    Maximum-Head-Change  Column Row Layer    Maximum-Flux-Residual          L2-NORM 
          0                 1           2             4    7     1      -0.4986839302E-01       4    7    1        -0.2616878366E+01      0.5655588602E+01
          0                 2           2             4    7     1       0.4850789716E-02       4    7    1         0.2616848728E+00      0.5655535112E+00
          0                 3           2             4    7     1      -0.3303255153E-03       4    7    1        -0.1831821322E-01      0.3958917990E-01
          0                 4           1             4    7     1       0.1313975560E-04       4    7    1         0.7489774298E-03      0.1618629039E-02

    ------------------------------------------------
       NWT REQUIRED            4 OUTER ITERATIONS 
       AND A TOTAL OF          7 INNER ITERATIONS.
    ------------------------------------------------

 NO OUTPUT CONTROL FOR STRESS PERIOD   19   TIME STEP   17
 
 SOLVING FOR HEAD 
                                                   Max.-Head-Change                         Max.-Flux-Residual
  Residual-Control   Outer-Iter.   Inner-Iter.     Column Row Layer    Maximum-Head-Change  Column Row Layer    Maximum-Flux-Residual          L2-NORM 
          0                 1           2             4    7     1      -0.4937772147E-01       4    7    1        -0.2591404497E+01      0.5592274226E+01
          0                 2           2             4    7     1       0.4803060867E-02       4    7    1         0.2591374929E+00      0.5592224086E+00
          0                 3           2             4    7     1      -0.3270753565E-03       4    7    1        -0.1813989648E-01      0.3914601070E-01
          0                 4           1             4    7     1       0.1301042874E-04       4    7    1         0.7416842609E-03      0.1600481686E-02

    ------------------------------------------------
       NWT REQUIRED            4 OUTER ITERATIONS 
       AND A TOTAL OF          7 INNER ITERATIONS.
    ------------------------------------------------

 NO OUTPUT CONTROL FOR STRESS PERIOD   19   TIME STEP   18
 
 SOLVING FOR HEAD 
                                                   Max.-Head-Change                         Max.-Flux-Residual
  Residual-Control   Outer-Iter.   Inner-Iter.     Column Row Layer    Maximum-Head-Change  Column Row Layer    Maximum-Flux-Residual          L2-NORM 
          0                 1           2             4    7     1      -0.4888708295E-01       4    7    1        -0.2565900752E+01      0.5531022060E+01
          0                 2           2             4    7     1       0.4755335294E-02       4    7    1         0.2565871298E+00      0.5530974568E+00
          0                 3           2             4    7     1      -0.3238254199E-03       4    7    1        -0.1796137086E-01      0.3871729247E-01
          0                 4           1             4    7     1       0.1288111074E-04       4    7    1         0.7343825559E-03      0.1582961540E-02

    ------------------------------------------------
       NWT REQUIRED            4 OUTER ITERATIONS 
       AND A TOTAL OF          7 INNER ITERATIONS.
    ------------------------------------------------

 NO OUTPUT CONTROL FOR STRESS PERIOD   19   TIME STEP   19
 
 SOLVING FOR HEAD 
                                                   Max.-Head-Change                         Max.-Flux-Residual
  Residual-Control   Outer-Iter.   Inner-Iter.     Column Row Layer    Maximum-Head-Change  Column Row Layer    Maximum-Flux-Residual          L2-NORM 
          0                 1           2             4    7     1      -0.4839691723E-01       4    7    1        -0.2540392098E+01      0.5471721404E+01
          0                 2           2             4    7     1       0.4707655771E-02       4    7    1         0.2540362796E+00      0.5471676510E+00
          0                 3           2             4    7     1      -0.3205786192E-03       4    7    1        -0.1778281114E-01      0.3830222301E-01
          0                 4           1             4    7     1       0.1275191766E-04       4    7    1         0.7270794574E-03      0.1566000109E-02

    ------------------------------------------------
       NWT REQUIRED            4 OUTER ITERATIONS 
       AND A TOTAL OF          7 INNER ITERATIONS.
    ------------------------------------------------

 NO OUTPUT CONTROL FOR STRESS PERIOD   19   TIME STEP   20
 
 SOLVING FOR HEAD 
                                                   Max.-Head-Change                         Max.-Flux-Residual
  Residual-Control   Outer-Iter.   Inner-Iter.     Column Row Layer    Maximum-Head-Change  Column Row Layer    Maximum-Flux-Residual          L2-NORM 
          0                 1           2             4    7     1      -0.4790789134E-01       4    7    1        -0.2514915561E+01      0.5414282782E+01
          0                 2           2             4    7     1       0.4660087172E-02       4    7    1         0.2514886447E+00      0.5414239725E+00
          0                 3           2             4    7     1      -0.3173393709E-03       4    7    1        -0.1760447644E-01      0.3790017793E-01
          0                 4           1             4    7     1       0.1262302471E-04       4    7    1         0.7197855484E-03      0.1549551863E-02

    ------------------------------------------------
       NWT REQUIRED            4 OUTER ITERATIONS 
       AND A TOTAL OF          7 INNER ITERATIONS.
    ------------------------------------------------

 NO OUTPUT CONTROL FOR STRESS PERIOD   19   TIME STEP   21
 
 SOLVING FOR HEAD 
                                                   Max.-Head-Change                         Max.-Flux-Residual
  Residual-Control   Outer-Iter.   Inner-Iter.     Column Row Layer    Maximum-Head-Change  Column Row Layer    Maximum-Flux-Residual          L2-NORM 
          0                 1           2             4    7     1      -0.4742035190E-01       4    7    1        -0.2489491503E+01      0.5358596304E+01
          0                 2           2             4    7     1       0.4612663209E-02       4    7    1         0.2489462608E+00      0.5358555122E+00
          0                 3           2             4    7     1      -0.3141099720E-03       4    7    1        -0.1742650928E-01      0.3751039296E-01
          0                 4           1             4    7     1       0.1249452435E-04       4    7    1         0.7125066979E-03      0.1533611619E-02

    ------------------------------------------------
       NWT REQUIRED            4 OUTER ITERATIONS 
       AND A TOTAL OF          7 INNER ITERATIONS.
    ------------------------------------------------

 NO OUTPUT CONTROL FOR STRESS PERIOD   19   TIME STEP   22
 
 SOLVING FOR HEAD 
                                                   Max.-Head-Change                         Max.-Flux-Residual
  Residual-Control   Outer-Iter.   Inner-Iter.     Column Row Layer    Maximum-Head-Change  Column Row Layer    Maximum-Flux-Residual          L2-NORM 
          0                 1           2             4    7     1      -0.4693501918E-01       4    7    1        -0.2464159704E+01      0.5304598551E+01
          0                 2           2             4    7     1       0.4565453942E-02       4    7    1         0.2464131054E+00      0.5304558819E+00
          0                 3           2             4    7     1      -0.3108951923E-03       4    7    1        -0.1724918811E-01      0.3713242113E-01
          0                 4           1             4    7     1       0.1236660527E-04       4    7    1         0.7052542487E-03      0.1518153247E-02

    ------------------------------------------------
       NWT REQUIRED            4 OUTER ITERATIONS 
       AND A TOTAL OF          7 INNER ITERATIONS.
    ------------------------------------------------

 NO OUTPUT CONTROL FOR STRESS PERIOD   19   TIME STEP   23
 
 SOLVING FOR HEAD 
                                                   Max.-Head-Change                         Max.-Flux-Residual
  Residual-Control   Outer-Iter.   Inner-Iter.     Column Row Layer    Maximum-Head-Change  Column Row Layer    Maximum-Flux-Residual          L2-NORM 
          0                 1           2             4    7     1      -0.4645201330E-01       4    7    1        -0.2438927879E+01      0.5252187942E+01
          0                 2           2             4    7     1       0.4518471047E-02       4    7    1         0.2438899500E+00      0.5252149825E+00
          0                 3           2             4    7     1      -0.3076958271E-03       4    7    1        -0.1707256689E-01      0.3676557763E-01
          0                 4           1             4    7     1       0.1223929912E-04       4    7    1         0.6980304177E-03      0.1503155020E-02

    ------------------------------------------------
       NWT REQUIRED            4 OUTER ITERATIONS 
       AND A TOTAL OF          7 INNER ITERATIONS.
    ------------------------------------------------

 NO OUTPUT CONTROL FOR STRESS PERIOD   19   TIME STEP   24
 
 SOLVING FOR HEAD 
                                                   Max.-Head-Change                         Max.-Flux-Residual
  Residual-Control   Outer-Iter.   Inner-Iter.     Column Row Layer    Maximum-Head-Change  Column Row Layer    Maximum-Flux-Residual          L2-NORM 
          0                 1           2             4    7     1      -0.4597183983E-01       4    7    1        -0.2413824298E+01      0.5201312768E+01
          0                 2           2             4    7     1       0.4471763699E-02       4    7    1         0.2413796210E+00      0.5201275874E+00
          0                 3           2             4    7     1      -0.3045152257E-03       4    7    1        -0.1689684352E-01      0.3640945997E-01
          0                 4           1             4    7     1       0.1211274027E-04       4    7    1         0.6908433295E-03      0.1488581337E-02

    ------------------------------------------------
       NWT REQUIRED            4 OUTER ITERATIONS 
       AND A TOTAL OF          7 INNER ITERATIONS.
    ------------------------------------------------

 NO OUTPUT CONTROL FOR STRESS PERIOD   19   TIME STEP   25
 
 SOLVING FOR HEAD 
                                                   Max.-Head-Change                         Max.-Flux-Residual
  Residual-Control   Outer-Iter.   Inner-Iter.     Column Row Layer    Maximum-Head-Change  Column Row Layer    Maximum-Flux-Residual          L2-NORM 
          0                 1           2             4    7     1      -0.4549470979E-01       4    7    1        -0.2388861198E+01      0.5151888640E+01
          0                 2           2             4    7     1       0.4425352422E-02       4    7    1         0.2388833420E+00      0.5151852919E+00
          0                 3           2             4    7     1      -0.3013547849E-03       4    7    1        -0.1672210360E-01      0.3606349771E-01
          0                 4           1             4    7     1       0.1198698329E-04       4    7    1         0.6836964587E-03      0.1474443208E-02

    ------------------------------------------------
       NWT REQUIRED            4 OUTER ITERATIONS 
       AND A TOTAL OF          7 INNER ITERATIONS.
    ------------------------------------------------

 NO OUTPUT CONTROL FOR STRESS PERIOD   19   TIME STEP   26
 
 SOLVING FOR HEAD 
                                                   Max.-Head-Change                         Max.-Flux-Residual
  Residual-Control   Outer-Iter.   Inner-Iter.     Column Row Layer    Maximum-Head-Change  Column Row Layer    Maximum-Flux-Residual          L2-NORM 
          0                 1           2             4    7     1      -0.4502118564E-01       4    7    1        -0.2364070363E+01      0.5103859235E+01
          0                 2           2             4    7     1       0.4379291923E-02       4    7    1         0.2364042912E+00      0.5103824662E+00
          0                 3           2             4    7     1      -0.2982182313E-03       4    7    1        -0.1654856967E-01      0.3572731687E-01
          0                 4           1             4    7     1       0.1186217702E-04       4    7    1         0.6765989226E-03      0.1460704479E-02

    ------------------------------------------------
       NWT REQUIRED            4 OUTER ITERATIONS 
       AND A TOTAL OF          7 INNER ITERATIONS.
    ------------------------------------------------

 NO OUTPUT CONTROL FOR STRESS PERIOD   19   TIME STEP   27
 
 SOLVING FOR HEAD 
                                                   Max.-Head-Change                         Max.-Flux-Residual
  Residual-Control   Outer-Iter.   Inner-Iter.     Column Row Layer    Maximum-Head-Change  Column Row Layer    Maximum-Flux-Residual          L2-NORM 
          0                 1           2             4    7     1      -0.4455126536E-01       4    7    1        -0.2339452293E+01      0.5057152847E+01
          0                 2           2             4    7     1       0.4333582002E-02       4    7    1         0.2339425182E+00      0.5057119177E+00
          0                 3           2             4    7     1      -0.2951055501E-03       4    7    1        -0.1637624518E-01      0.3540037694E-01
          0                 4           1             4    7     1       0.1173832033E-04       4    7    1         0.6695508257E-03      0.1447328646E-02

    ------------------------------------------------
       NWT REQUIRED            4 OUTER ITERATIONS 
       AND A TOTAL OF          7 INNER ITERATIONS.
    ------------------------------------------------

 NO OUTPUT CONTROL FOR STRESS PERIOD   19   TIME STEP   28
 
 SOLVING FOR HEAD 
                                                   Max.-Head-Change                         Max.-Flux-Residual
  Residual-Control   Outer-Iter.   Inner-Iter.     Column Row Layer    Maximum-Head-Change  Column Row Layer    Maximum-Flux-Residual          L2-NORM 
          0                 1           2             4    7     1      -0.4408547546E-01       4    7    1        -0.2315036021E+01      0.5013402503E+01
          0                 2           2             4    7     1       0.4288273872E-02       4    7    1         0.2315009262E+00      0.5013326875E+00
          0                 3           2             4    7     1      -0.2920202292E-03       4    7    1        -0.1620533332E-01      0.3509345238E-01
          0                 4           1             4    7     1       0.1161555252E-04       4    7    1         0.6625605208E-03      0.1434755163E-02

    ------------------------------------------------
       NWT REQUIRED            4 OUTER ITERATIONS 
       AND A TOTAL OF          7 INNER ITERATIONS.
    ------------------------------------------------

 NO OUTPUT CONTROL FOR STRESS PERIOD   19   TIME STEP   29
 
 SOLVING FOR HEAD 
                                                   Max.-Head-Change                         Max.-Flux-Residual
  Residual-Control   Outer-Iter.   Inner-Iter.     Column Row Layer    Maximum-Head-Change  Column Row Layer    Maximum-Flux-Residual          L2-NORM 
          0                 1           2             4    7     1      -0.4362390950E-01       4    7    1        -0.2290827053E+01      0.4972459474E+01
          0                 2           2             4    7     1       0.4243376630E-02       4    7    1         0.2290800657E+00      0.4972281987E+00
          0                 3           2             4    7     1      -0.2889628880E-03       4    7    1        -0.1603587265E-01      0.3480521791E-01
          0                 4           1             4    7     1       0.1149389822E-04       4    7    1         0.6556295762E-03      0.1422924500E-02

    ------------------------------------------------
       NWT REQUIRED            4 OUTER ITERATIONS 
       AND A TOTAL OF          7 INNER ITERATIONS.
    ------------------------------------------------

 NO OUTPUT CONTROL FOR STRESS PERIOD   19   TIME STEP   30



 STREAM LISTING     PERIOD     19   STEP       30

 LAYER ROW COL. STREAM  RCH.  FLOW INTO     FLOW TO   FLOW OUT OF   OVRLND.     DIRECT     STREAM       STREAM     STREAM     STREAM   STREAMBED  STREAMBED
                SEG.NO.  NO.  STRM. RCH.    AQUIFER    STRM. RCH.    RUNOFF     PRECIP       ET          HEAD       DEPTH      WIDTH   CONDCTNC.   GRADIENT

   1    1    1     1     1    5.4001E+01  3.5066E-01   5.3650E+01  0.000E+00  0.000E+00  0.000E+00  1.09450E+03  1.450E+00  1.751E+01  7.879E-02  1.483E+00
   1    2    2     1     2    5.3650E+01  5.4294E-01   5.3107E+01  0.000E+00  0.000E+00  0.000E+00  1.08950E+03  1.445E+00  1.745E+01  1.222E-01  1.482E+00
   1    3    3     1     3    5.3107E+01  4.6294E-01   5.2644E+01  0.000E+00  0.000E+00  0.000E+00  1.08386E+03  1.438E+00  1.739E+01  1.043E-01  1.479E+00
   1    3    4     1     4    5.2644E+01  4.2621E-01   5.2218E+01  0.000E+00  0.000E+00  0.000E+00  1.07884E+03  1.432E+00  1.733E+01  9.616E-02  1.477E+00
   1    4    5     2     1    5.0218E+01  3.7682E-01   4.9841E+01  0.000E+00  0.000E+00  0.000E+00  1.07376E+03  1.831E+00  1.200E+01  7.800E-02  1.610E+00
   1    5    6     2     2    4.9841E+01  2.8942E-01   4.9552E+01  0.000E+00  0.000E+00  0.000E+00  1.06833E+03  1.824E+00  1.200E+01  6.000E-02  1.608E+00
   1    6    6     2     3    4.9552E+01  2.8904E-01   4.9263E+01  0.000E+00  0.000E+00  0.000E+00  1.06361E+03  1.817E+00  1.200E+01  6.000E-02  1.606E+00
   1    7    6     2     4    4.9263E+01  2.8865E-01   4.8974E+01  0.000E+00  0.000E+00  0.000E+00  1.05889E+03  1.811E+00  1.200E+01  6.000E-02  1.604E+00
   1    8    6     2     5    4.8974E+01  2.8827E-01   4.8686E+01  0.000E+00  0.000E+00  0.000E+00  1.05416E+03  1.804E+00  1.200E+01  6.000E-02  1.601E+00
   1    3    5     3     1    2.0000E+00  2.8252E-01   1.7175E+00  0.000E+00  0.000E+00  0.000E+00  1.07555E+03  1.909E+00  9.636E+00  7.227E-02  1.955E+00
   1    3    6     3     2    1.7175E+00  2.4905E-01   1.4684E+00  0.000E+00  0.000E+00  0.000E+00  1.07264E+03  1.727E+00  8.909E+00  6.682E-02  1.864E+00
   1    3    7     3     3    1.4684E+00  1.9718E-01   1.2712E+00  0.000E+00  0.000E+00  0.000E+00  1.06987E+03  1.555E+00  8.218E+00  5.547E-02  1.777E+00
   1    4    8     3     4    1.2712E+00  2.2567E-01   1.0456E+00  0.000E+00  0.000E+00  0.000E+00  1.06682E+03  1.364E+00  7.455E+00  6.709E-02  1.682E+00
   1    5    8     3     5    1.0456E+00  1.5790E-01   8.8768E-01  0.000E+00  0.000E+00  0.000E+00  1.06362E+03  1.164E+00  6.655E+00  4.991E-02  1.582E+00
   1    6    8     3     6    8.8768E-01  5.5980E-02   8.3170E-01  0.000E+00  0.000E+00  0.000E+00  1.06158E+03  1.036E+00  6.145E+00  1.844E-02  1.518E+00
   1    5   10     4     1    1.0000E+01  9.0919E-02   9.9091E+00  0.000E+00  0.000E+00  0.000E+00  1.07836E+03  6.368E-01  1.000E+01  2.500E-02  1.212E+00
   1    5    9     4     2    9.9091E+00  1.8158E-01   9.7275E+00  0.000E+00  0.000E+00  0.000E+00  1.07154E+03  6.315E-01  1.000E+01  5.000E-02  1.211E+00
   1    6    8     4     3    9.7275E+00  1.2689E-01   9.6006E+00  0.000E+00  0.000E+00  0.000E+00  1.06381E+03  6.256E-01  1.000E+01  3.500E-02  1.209E+00
   1    6    8     5     1    1.0432E+01  2.2686E-01   1.0205E+01  0.000E+00  0.000E+00  0.000E+00  1.05868E+03  6.790E-01  1.542E+01  6.166E-02  1.226E+00
   1    7    7     5     2    1.0205E+01  2.7894E-01   9.9265E+00  0.000E+00  0.000E+00  0.000E+00  1.05417E+03  6.732E-01  1.519E+01  7.594E-02  1.224E+00
   1    8    7     5     3    9.9265E+00  1.9221E-01   9.7343E+00  0.000E+00  0.000E+00  0.000E+00  1.04992E+03  6.676E-01  1.497E+01  5.241E-02  1.223E+00
   1    8    6     5     4    9.7343E+00  1.3577E-01   9.5985E+00  0.000E+00  0.000E+00  0.000E+00  1.04691E+03  6.637E-01  1.482E+01  3.706E-02  1.221E+00
   1    9    6     6     1    5.8284E+01  3.0156E-01   5.7983E+01  0.000E+00  0.000E+00  0.000E+00  1.04475E+03  2.026E+00  1.200E+01  6.000E-02  1.675E+00
   1   10    7     6     2    5.7983E+01  3.0118E-01   5.7682E+01  0.000E+00  0.000E+00  0.000E+00  1.04020E+03  2.020E+00  1.200E+01  6.000E-02  1.673E+00
   1   11    7     6     3    5.7682E+01  3.0080E-01   5.7381E+01  0.000E+00  0.000E+00  0.000E+00  1.03565E+03  2.013E+00  1.200E+01  6.000E-02  1.671E+00
   1   12    7     6     4    5.7381E+01  3.0042E-01   5.7080E+01  0.000E+00  0.000E+00  0.000E+00  1.03110E+03  2.007E+00  1.200E+01  6.000E-02  1.669E+00
   1   13    7     6     5    5.7080E+01  1.9529E-02   5.7061E+01  0.000E+00  0.000E+00  0.000E+00  1.02791E+03  2.004E+00  1.200E+01  2.400E-02  2.712E-01
   1   14    9     7     1    1.5000E+02  1.3316E+00   1.4867E+02  0.000E+00  0.000E+00  0.000E+00  1.03987E+03  2.288E+00  5.529E+01  5.593E-01  7.936E-01
   1   13    8     7     2    1.4867E+02  1.8254E+00   1.4684E+02  0.000E+00  0.000E+00  0.000E+00  1.03478E+03  2.279E+00  5.526E+01  6.148E-01  9.898E-01
   1   13    7     7     3    1.4684E+02  1.4469E+00   1.4540E+02  0.000E+00  0.000E+00  0.000E+00  1.02969E+03  2.271E+00  5.522E+01  5.585E-01  8.636E-01
   1   13    6     8     1    2.0246E+02  1.0279E+00   2.0143E+02  0.000E+00  0.000E+00  0.000E+00  1.02502E+03  3.149E+00  4.566E+01  4.653E-01  7.363E-01
   1   13    5     8     2    2.0143E+02  2.3346E-01   2.0120E+02  0.000E+00  0.000E+00  0.000E+00  1.01877E+03  3.145E+00  4.561E+01  4.648E-01  1.674E-01
   1   13    4     8     3    2.0120E+02 -2.2692E+00   2.0346E+02  0.000E+00  0.000E+00  0.000E+00  1.01253E+03  3.151E+00  4.569E+01  4.656E+00 -1.624E-01
   1   13    3     8     4    2.0346E+02 -3.4637E+00   2.0693E+02  0.000E+00  0.000E+00  0.000E+00  1.00629E+03  3.168E+00  4.594E+01  4.681E+00 -2.466E-01
   1   13    2     8     5    2.0693E+02 -2.6109E+00   2.0954E+02  0.000E+00  0.000E+00  0.000E+00  1.00006E+03  3.186E+00  4.619E+01  4.707E+00 -1.849E-01
   1   13    1     8     6    2.0954E+02 -2.0319E+00   2.1157E+02  0.000E+00  0.000E+00  0.000E+00  9.95074E+02  3.199E+00  4.638E+01  2.836E+00 -2.388E-01





UNSATURATED ZONE PACKAGE VOLUMETRIC BUDGET FOR  TIME STEP    30 STRESS PERIOD   19
  ------------------------------------------------------------------------------



     CUMULATIVE VOLUMES      L**3       RATES FOR THIS TIME STEP      L**3/T
     ------------------                 ------------------------

           IN:                                      IN:
           ---                                      ---
        INFILTRATION =   691914217.2117          INFILTRATION =          26.5577

          OUT:                                     OUT:
          ----                                     ----
              UZF ET =   636714175.3807                UZF ET =          26.6075
        UZF RECHARGE =      797698.7981          UZF RECHARGE =       0.0000E+00

            IN - OUT =    54402343.0329              IN - OUT =      -4.9847E-02

          STORAGE:                                 STORAGE:
          --------                                 --------
      STORAGE CHANGE =    54403291.8067        STORAGE CHANGE =      -4.9848E-02

 PERCENT DISCREPANCY IS DIFFERENCE BETWEEN IN-OUT MINUS CHANGE IN STORAGE
 DIVIDED BY THE AVERAGE OF IN AND OUT TIMES 100

 PERCENT DISCREPANCY =          -0.00     PERCENT DISCREPANCY =           0.00






1
  VOLUMETRIC BUDGET FOR AGRICULTURAL FIELDS AT TIME STEP   30, STRESS PERIOD  19
  ------------------------------------------------------------------------------

     CUMULATIVE VOLUMES      L**3       RATES FOR THIS TIME STEP      L**3/T
     ------------------                 ------------------------

           IN:                                      IN:
           ---                                      ---
               AG WELLS  =   483189760.0000                 AG WELLS  =          22.1502
      DIVERSION SEGMENTS =           0.0000        DIVERSION SEGMENTS =           0.0000
           GW IRRIGATION =           0.0000             GW IRRIGATION =           0.0000
           SW IRRIGATION =           0.0000             SW IRRIGATION =           0.0000
        SYSTEM LOSSES GW =           0.0000          SYSTEM LOSSES GW =           0.0000
        SYSTEM LOSSES SW =           0.0000          SYSTEM LOSSES SW =           0.0000

                TOTAL IN =   483189760.0000                  TOTAL IN =          22.1502

          OUT:                                     OUT:
          ----                                     ----
               AG WELLS  =           0.0000                 AG WELLS  =           0.0000
      DIVERSION SEGMENTS =           0.0000        DIVERSION SEGMENTS =           0.0000
           GW IRRIGATION =   483189760.0000             GW IRRIGATION =          22.1502
           SW IRRIGATION =           0.0000             SW IRRIGATION =           0.0000
        SYSTEM LOSSES GW =           0.0000          SYSTEM LOSSES GW =           0.0000
        SYSTEM LOSSES SW =           0.0000          SYSTEM LOSSES SW =           0.0000

               TOTAL OUT =   483189760.0000                 TOTAL OUT =          22.1502

                IN - OUT =           0.0000                  IN - OUT =           0.0000

     PERCENT DISCREPANCY =           0.00         PERCENT DISCREPANCY =           0.00



1
  VOLUMETRIC BUDGET FOR ENTIRE MODEL AT END OF TIME STEP   30, STRESS PERIOD  19
  ------------------------------------------------------------------------------

     CUMULATIVE VOLUMES      L**3       RATES FOR THIS TIME STEP      L**3/T
     ------------------                 ------------------------

           IN:                                      IN:
           ---                                      ---
             STORAGE     =   646386496.0000               STORAGE     =          20.4451
       CONSTANT HEAD     =           0.0000         CONSTANT HEAD     =           0.0000
     HEAD DEP BOUNDS     =    13536026.0000       HEAD DEP BOUNDS     =           0.2855
      STREAM LEAKAGE     =   595752896.0000        STREAM LEAKAGE     =          12.8052
        UZF RECHARGE     =      797698.6250          UZF RECHARGE     =           0.0000
               GW ET     =           0.0000                 GW ET     =           0.0000
     SURFACE LEAKAGE     =           0.0000       SURFACE LEAKAGE     =           0.0000
           AG WELLS      =           0.0000             AG WELLS      =           0.0000

                TOTAL IN =  1256473088.0000                  TOTAL IN =          33.5358

          OUT:                                     OUT:
          ----                                     ----
             STORAGE     =   253187760.0000               STORAGE     =           0.3689
       CONSTANT HEAD     =           0.0000         CONSTANT HEAD     =           0.0000
     HEAD DEP BOUNDS     =    13979231.0000       HEAD DEP BOUNDS     =           0.2960
      STREAM LEAKAGE     =   489863744.0000        STREAM LEAKAGE     =          10.3757
        UZF RECHARGE     =           0.0000          UZF RECHARGE     =           0.0000
               GW ET     =    16253525.0000                 GW ET     =           0.3451
     SURFACE LEAKAGE     =           0.0000       SURFACE LEAKAGE     =           0.0000
           AG WELLS      =   483189760.0000             AG WELLS      =          22.1502

               TOTAL OUT =  1256473984.0000                 TOTAL OUT =          33.5359

                IN - OUT =        -896.0000                  IN - OUT =      -6.4850E-05

     PERCENT DISCREPANCY =          -0.00         PERCENT DISCREPANCY =          -0.00






         TIME SUMMARY AT END OF TIME STEP   30 IN STRESS PERIOD   19
                    SECONDS     MINUTES      HOURS       DAYS        YEARS
                    -----------------------------------------------------------
   TIME STEP LENGTH  87667.      1461.1      24.352      1.0147     2.77799E-03
 STRESS PERIOD TIME 2.63000E+06  43833.      730.56      30.440     8.33397E-02
         TOTAL TIME 4.74265E+07 7.90442E+05  13174.      548.92      1.5029    
1
1
                            STRESS PERIOD NO.   20, LENGTH =   2630000.    
                            -----------------------------------------------

                              NUMBER OF TIME STEPS =    30

                               MULTIPLIER FOR DELT =     1.000

                            INITIAL TIME STEP SIZE =   87666.66    

 REUSING NON-PARAMETER GHB CELLS FROM LAST STRESS PERIOD

      2 GHB CELLS

 REUSING STREAM SEGMENT DATA FROM LAST STRESS PERIOD



            AREAL INFILTRATION RATE
 READING ON UNIT   19 WITH FORMAT: (10F4.0)            

            1           2           3           4           5           6           7           8           9          10
 ........................................................................................................................
   1   1.2000E-09   0.000       0.000       0.000       0.000       0.000       0.000       0.000       0.000       0.000    
   2   2.1000E-09  2.0000E-09  8.0000E-10  8.5000E-09   0.000       0.000       0.000       0.000       0.000       0.000    
   3   5.0000E-10  1.1000E-09  8.8000E-09  5.5000E-09   0.000       0.000       0.000       0.000       0.000       0.000    
   4   8.5000E-09  1.1000E-09  1.1000E-09  1.1000E-09  2.0000E-09   0.000       0.000       0.000       0.000       0.000    
   5   8.5000E-09  1.1000E-09  1.1000E-09  1.1000E-09  1.1000E-09   0.000       0.000       0.000       0.000       0.000    
   6   8.5000E-09  5.2000E-09  2.1000E-09  1.1000E-09  1.5000E-09   0.000       0.000       0.000       0.000       0.000    
   7   8.5000E-09  5.2000E-09  2.1000E-09  1.2000E-09  2.0000E-09   0.000       0.000       0.000       0.000       0.000    
   8   5.0000E-10  5.2000E-09  2.1000E-09  1.2000E-09  5.0000E-09   0.000       0.000       0.000       0.000       0.000    
   9   5.0000E-10  5.2000E-09  2.1000E-09  1.2000E-09  5.0000E-09   0.000       0.000       0.000       0.000       0.000    
  10   5.0000E-10  5.2000E-09  2.1000E-09  1.2000E-09  5.8000E-09   0.000       0.000       0.000       0.000       0.000    
  11   1.0000E-10  1.1000E-09  1.1000E-09  1.2000E-09  5.0000E-09   0.000       0.000       0.000       0.000       0.000    
  12   1.1000E-09  1.1000E-09  1.1000E-09  1.1000E-09  2.0000E-09   0.000       0.000       0.000       0.000       0.000    
  13   1.1000E-09  2.2000E-09  2.2000E-09  2.1000E-09  1.0000E-09   0.000       0.000       0.000       0.000       0.000    
  14   2.0000E-10  5.5000E-09  5.5000E-09  5.2000E-09  1.0000E-09   0.000       0.000       0.000       0.000       0.000    
  15    0.000      8.8000E-09  8.8000E-09   0.000       0.000       0.000       0.000       0.000       0.000       0.000    

                  ET RATE =  4.000000E-07

 USING ET EXTINCTION DEPTH FROM PREVIOUS STRESS PERIOD. CURRENT PERIOD IS:      20

 USING EXTINCTION WATER CONTENT FROM PREVIOUS STRESS PERIOD. CURRENT PERIOD IS:      20

 USING AIR ENTRY PRESSURE FROM PREVIOUS STRESS PERIOD. CURRENT PERIOD IS:      20

 USING ROOT PRESSURE HEAD FROM PREVIOUS STRESS PERIOD. CURRENT PERIOD IS:      20

 USING ROOT ACTIVITY FROM PREVIOUS STRESS PERIOD. CURRENT PERIOD IS:      20

 PROCESSING AG STRESS PERIOD DATA

 READING AG STRESS PERIOD DATA

 READING IRRIGATION WELL

 END PROCESSING AG STRESS PERIOD DATA OPTIONS
 
 SOLVING FOR HEAD 
                                                   Max.-Head-Change                         Max.-Flux-Residual
  Residual-Control   Outer-Iter.   Inner-Iter.     Column Row Layer    Maximum-Head-Change  Column Row Layer    Maximum-Flux-Residual          L2-NORM 
          0                 1           2             4    7     1      -0.1628774444E+00       4    7    1        -0.8516830481E+01      0.1996436775E+02
          0                 2           2             4    7     1       0.1584328322E-01       4    7    1         0.8516663978E+00      0.1996385690E+01
          0                 3           2             4    7     1      -0.1078871303E-02       4    7    1        -0.5961683112E-01      0.1397451815E+00
          0                 4           1             4    7     1       0.4292928711E-04       4    7    1         0.2438331043E-02      0.5715432688E-02

    ------------------------------------------------
       NWT REQUIRED            4 OUTER ITERATIONS 
       AND A TOTAL OF          7 INNER ITERATIONS.
    ------------------------------------------------

 OUTPUT CONTROL FOR STRESS PERIOD   20   TIME STEP    1
    PRINT BUDGET
    SAVE BUDGET
    SAVE BUDGET
    SAVE HEAD FOR ALL LAYERS
 UBDSV1 SAVING "         STORAGE" ON UNIT 102 AT TIME STEP  1, STRESS PERIOD  20
 UBDSV2 SAVING "   CONSTANT HEAD" ON UNIT 102 AT TIME STEP  1, STRESS PERIOD  20
 UBDSV1 SAVING "FLOW RIGHT FACE " ON UNIT 102 AT TIME STEP  1, STRESS PERIOD  20
 UBDSV1 SAVING "FLOW FRONT FACE " ON UNIT 102 AT TIME STEP  1, STRESS PERIOD  20

  HEAD DEP BOUNDS   PERIOD   20   STEP     1
 BOUNDARY      1   LAYER   1   ROW    13   COL     1   RATE   -0.295990    
 BOUNDARY      2   LAYER   1   ROW    14   COL     9   RATE    0.285476    



 STREAM LISTING     PERIOD     20   STEP        1

 LAYER ROW COL. STREAM  RCH.  FLOW INTO     FLOW TO   FLOW OUT OF   OVRLND.     DIRECT     STREAM       STREAM     STREAM     STREAM   STREAMBED  STREAMBED
                SEG.NO.  NO.  STRM. RCH.    AQUIFER    STRM. RCH.    RUNOFF     PRECIP       ET          HEAD       DEPTH      WIDTH   CONDCTNC.   GRADIENT

   1    1    1     1     1    5.4001E+01  3.5066E-01   5.3650E+01  0.000E+00  0.000E+00  0.000E+00  1.09450E+03  1.450E+00  1.751E+01  7.879E-02  1.483E+00
   1    2    2     1     2    5.3650E+01  5.4294E-01   5.3107E+01  0.000E+00  0.000E+00  0.000E+00  1.08950E+03  1.445E+00  1.745E+01  1.222E-01  1.482E+00
   1    3    3     1     3    5.3107E+01  4.6294E-01   5.2644E+01  0.000E+00  0.000E+00  0.000E+00  1.08386E+03  1.438E+00  1.739E+01  1.043E-01  1.479E+00
   1    3    4     1     4    5.2644E+01  4.2621E-01   5.2218E+01  0.000E+00  0.000E+00  0.000E+00  1.07884E+03  1.432E+00  1.733E+01  9.616E-02  1.477E+00
   1    4    5     2     1    5.0218E+01  3.7682E-01   4.9841E+01  0.000E+00  0.000E+00  0.000E+00  1.07376E+03  1.831E+00  1.200E+01  7.800E-02  1.610E+00
   1    5    6     2     2    4.9841E+01  2.8942E-01   4.9552E+01  0.000E+00  0.000E+00  0.000E+00  1.06833E+03  1.824E+00  1.200E+01  6.000E-02  1.608E+00
   1    6    6     2     3    4.9552E+01  2.8904E-01   4.9263E+01  0.000E+00  0.000E+00  0.000E+00  1.06361E+03  1.817E+00  1.200E+01  6.000E-02  1.606E+00
   1    7    6     2     4    4.9263E+01  2.8865E-01   4.8974E+01  0.000E+00  0.000E+00  0.000E+00  1.05889E+03  1.811E+00  1.200E+01  6.000E-02  1.604E+00
   1    8    6     2     5    4.8974E+01  2.8827E-01   4.8686E+01  0.000E+00  0.000E+00  0.000E+00  1.05416E+03  1.804E+00  1.200E+01  6.000E-02  1.601E+00
   1    3    5     3     1    2.0000E+00  2.8252E-01   1.7175E+00  0.000E+00  0.000E+00  0.000E+00  1.07555E+03  1.909E+00  9.636E+00  7.227E-02  1.955E+00
   1    3    6     3     2    1.7175E+00  2.4905E-01   1.4684E+00  0.000E+00  0.000E+00  0.000E+00  1.07264E+03  1.727E+00  8.909E+00  6.682E-02  1.864E+00
   1    3    7     3     3    1.4684E+00  1.9718E-01   1.2712E+00  0.000E+00  0.000E+00  0.000E+00  1.06987E+03  1.555E+00  8.218E+00  5.547E-02  1.777E+00
   1    4    8     3     4    1.2712E+00  2.2567E-01   1.0456E+00  0.000E+00  0.000E+00  0.000E+00  1.06682E+03  1.364E+00  7.455E+00  6.709E-02  1.682E+00
   1    5    8     3     5    1.0456E+00  1.5790E-01   8.8768E-01  0.000E+00  0.000E+00  0.000E+00  1.06362E+03  1.164E+00  6.655E+00  4.991E-02  1.582E+00
   1    6    8     3     6    8.8768E-01  5.5980E-02   8.3170E-01  0.000E+00  0.000E+00  0.000E+00  1.06158E+03  1.036E+00  6.145E+00  1.844E-02  1.518E+00
   1    5   10     4     1    1.0000E+01  9.0919E-02   9.9091E+00  0.000E+00  0.000E+00  0.000E+00  1.07836E+03  6.368E-01  1.000E+01  2.500E-02  1.212E+00
   1    5    9     4     2    9.9091E+00  1.8158E-01   9.7275E+00  0.000E+00  0.000E+00  0.000E+00  1.07154E+03  6.315E-01  1.000E+01  5.000E-02  1.211E+00
   1    6    8     4     3    9.7275E+00  1.2689E-01   9.6006E+00  0.000E+00  0.000E+00  0.000E+00  1.06381E+03  6.256E-01  1.000E+01  3.500E-02  1.209E+00
   1    6    8     5     1    1.0432E+01  2.2686E-01   1.0205E+01  0.000E+00  0.000E+00  0.000E+00  1.05868E+03  6.790E-01  1.542E+01  6.166E-02  1.226E+00
   1    7    7     5     2    1.0205E+01  2.7894E-01   9.9265E+00  0.000E+00  0.000E+00  0.000E+00  1.05417E+03  6.732E-01  1.519E+01  7.594E-02  1.224E+00
   1    8    7     5     3    9.9265E+00  1.9221E-01   9.7343E+00  0.000E+00  0.000E+00  0.000E+00  1.04992E+03  6.676E-01  1.497E+01  5.241E-02  1.223E+00
   1    8    6     5     4    9.7343E+00  1.3577E-01   9.5985E+00  0.000E+00  0.000E+00  0.000E+00  1.04691E+03  6.637E-01  1.482E+01  3.706E-02  1.221E+00
   1    9    6     6     1    5.8284E+01  3.0156E-01   5.7983E+01  0.000E+00  0.000E+00  0.000E+00  1.04475E+03  2.026E+00  1.200E+01  6.000E-02  1.675E+00
   1   10    7     6     2    5.7983E+01  3.0118E-01   5.7682E+01  0.000E+00  0.000E+00  0.000E+00  1.04020E+03  2.020E+00  1.200E+01  6.000E-02  1.673E+00
   1   11    7     6     3    5.7682E+01  3.0080E-01   5.7381E+01  0.000E+00  0.000E+00  0.000E+00  1.03565E+03  2.013E+00  1.200E+01  6.000E-02  1.671E+00
   1   12    7     6     4    5.7381E+01  3.0042E-01   5.7080E+01  0.000E+00  0.000E+00  0.000E+00  1.03110E+03  2.007E+00  1.200E+01  6.000E-02  1.669E+00
   1   13    7     6     5    5.7080E+01  1.9539E-02   5.7061E+01  0.000E+00  0.000E+00  0.000E+00  1.02791E+03  2.004E+00  1.200E+01  2.400E-02  2.714E-01
   1   14    9     7     1    1.5000E+02  1.3317E+00   1.4867E+02  0.000E+00  0.000E+00  0.000E+00  1.03987E+03  2.288E+00  5.529E+01  5.593E-01  7.936E-01
   1   13    8     7     2    1.4867E+02  1.8255E+00   1.4684E+02  0.000E+00  0.000E+00  0.000E+00  1.03478E+03  2.279E+00  5.526E+01  6.148E-01  9.898E-01
   1   13    7     7     3    1.4684E+02  1.4472E+00   1.4540E+02  0.000E+00  0.000E+00  0.000E+00  1.02969E+03  2.271E+00  5.522E+01  5.585E-01  8.638E-01
   1   13    6     8     1    2.0246E+02  1.0283E+00   2.0143E+02  0.000E+00  0.000E+00  0.000E+00  1.02502E+03  3.149E+00  4.566E+01  4.653E-01  7.366E-01
   1   13    5     8     2    2.0143E+02  2.3381E-01   2.0119E+02  0.000E+00  0.000E+00  0.000E+00  1.01877E+03  3.145E+00  4.561E+01  4.648E-01  1.677E-01
   1   13    4     8     3    2.0119E+02 -2.2558E+00   2.0345E+02  0.000E+00  0.000E+00  0.000E+00  1.01253E+03  3.151E+00  4.569E+01  4.656E+00 -1.615E-01
   1   13    3     8     4    2.0345E+02 -3.4375E+00   2.0689E+02  0.000E+00  0.000E+00  0.000E+00  1.00629E+03  3.168E+00  4.593E+01  4.681E+00 -2.448E-01
   1   13    2     8     5    2.0689E+02 -2.6052E+00   2.0949E+02  0.000E+00  0.000E+00  0.000E+00  1.00006E+03  3.185E+00  4.619E+01  4.707E+00 -1.845E-01
   1   13    1     8     6    2.0949E+02 -2.0294E+00   2.1152E+02  0.000E+00  0.000E+00  0.000E+00  9.95074E+02  3.199E+00  4.638E+01  2.836E+00 -2.385E-01



 UBDSV3 SAVING "           GW ET" ON UNIT  61 AT TIME STEP  1, STRESS PERIOD  20
 UBDSV3 SAVING "    UZF RECHARGE" ON UNIT  61 AT TIME STEP  1, STRESS PERIOD  20
 UBDSV3 SAVING " SURFACE LEAKAGE" ON UNIT  61 AT TIME STEP  1, STRESS PERIOD  20
 UBDSV3 SAVING "       HORT+DUNN" ON UNIT  61 AT TIME STEP  1, STRESS PERIOD  20
 UBDSV3 SAVING "  STORAGE CHANGE" ON UNIT  61 AT TIME STEP  1, STRESS PERIOD  20


UNSATURATED ZONE PACKAGE VOLUMETRIC BUDGET FOR  TIME STEP     1 STRESS PERIOD   20
  ------------------------------------------------------------------------------



     CUMULATIVE VOLUMES      L**3       RATES FOR THIS TIME STEP      L**3/T
     ------------------                 ------------------------

           IN:                                      IN:
           ---                                      ---
        INFILTRATION =   697530065.4685          INFILTRATION =          64.0591

          OUT:                                     OUT:
          ----                                     ----
              UZF ET =   642334265.9501                UZF ET =          64.1075
        UZF RECHARGE =      797698.7981          UZF RECHARGE =       0.0000E+00

            IN - OUT =    54398100.7204              IN - OUT =      -4.8392E-02

          STORAGE:                                 STORAGE:
          --------                                 --------
      STORAGE CHANGE =    54399049.2975        STORAGE CHANGE =      -4.8394E-02

 PERCENT DISCREPANCY IS DIFFERENCE BETWEEN IN-OUT MINUS CHANGE IN STORAGE
 DIVIDED BY THE AVERAGE OF IN AND OUT TIMES 100

 PERCENT DISCREPANCY =          -0.00     PERCENT DISCREPANCY =           0.00






 

            AG WELLS      PERIOD   20   STEP   1
 AG WELL      1   LAYER   1   ROW     6   COL     4   RATE    -9.96620    
 AG WELL      2   LAYER   1   ROW     6   COL     5   RATE    -9.95360    
 AG WELL      3   LAYER   1   ROW     7   COL     4   RATE    -9.96149    
 AG WELL      4   LAYER   1   ROW     7   COL     5   RATE    -9.94091    
 AG WELL      5   LAYER   1   ROW     8   COL     4   RATE    -9.96149    
 AG WELL      6   LAYER   1   ROW     8   COL     5   RATE    -9.86792    
 
 

        GW IRRIGATION     PERIOD   20   STEP   1
 AG WELL      1   ROW     6   COL     4   RATE     9.96620    
 AG WELL      2   ROW     6   COL     5   RATE     9.95360    
 AG WELL      3   ROW     7   COL     4   RATE     9.96149    
 AG WELL      4   ROW     7   COL     5   RATE     9.94091    
 AG WELL      5   ROW     8   COL     4   RATE     9.96149    
 AG WELL      6   ROW     8   COL     5   RATE     9.86792    
 
1
  VOLUMETRIC BUDGET FOR AGRICULTURAL FIELDS AT TIME STEP    1, STRESS PERIOD  20
  ------------------------------------------------------------------------------

     CUMULATIVE VOLUMES      L**3       RATES FOR THIS TIME STEP      L**3/T
     ------------------                 ------------------------

           IN:                                      IN:
           ---                                      ---
               AG WELLS  =   488419232.0000                 AG WELLS  =          59.6516
      DIVERSION SEGMENTS =           0.0000        DIVERSION SEGMENTS =           0.0000
           GW IRRIGATION =           0.0000             GW IRRIGATION =           0.0000
           SW IRRIGATION =           0.0000             SW IRRIGATION =           0.0000
        SYSTEM LOSSES GW =           0.0000          SYSTEM LOSSES GW =           0.0000
        SYSTEM LOSSES SW =           0.0000          SYSTEM LOSSES SW =           0.0000

                TOTAL IN =   488419232.0000                  TOTAL IN =          59.6516

          OUT:                                     OUT:
          ----                                     ----
               AG WELLS  =           0.0000                 AG WELLS  =           0.0000
      DIVERSION SEGMENTS =           0.0000        DIVERSION SEGMENTS =           0.0000
           GW IRRIGATION =   488419232.0000             GW IRRIGATION =          59.6516
           SW IRRIGATION =           0.0000             SW IRRIGATION =           0.0000
        SYSTEM LOSSES GW =           0.0000          SYSTEM LOSSES GW =           0.0000
        SYSTEM LOSSES SW =           0.0000          SYSTEM LOSSES SW =           0.0000

               TOTAL OUT =   488419232.0000                 TOTAL OUT =          59.6516

                IN - OUT =           0.0000                  IN - OUT =           0.0000

     PERCENT DISCREPANCY =           0.00         PERCENT DISCREPANCY =           0.00




 HEAD WILL BE SAVED ON UNIT   62 AT END OF TIME STEP    1, STRESS PERIOD   20
1
  VOLUMETRIC BUDGET FOR ENTIRE MODEL AT END OF TIME STEP    1, STRESS PERIOD  20
  ------------------------------------------------------------------------------

     CUMULATIVE VOLUMES      L**3       RATES FOR THIS TIME STEP      L**3/T
     ------------------                 ------------------------

           IN:                                      IN:
           ---                                      ---
             STORAGE     =   651498240.0000               STORAGE     =          58.3089
       CONSTANT HEAD     =           0.0000         CONSTANT HEAD     =           0.0000
     HEAD DEP BOUNDS     =    13561053.0000       HEAD DEP BOUNDS     =           0.2855
      STREAM LEAKAGE     =   596875584.0000        STREAM LEAKAGE     =          12.8063
        UZF RECHARGE     =      797698.6250          UZF RECHARGE     =           0.0000
               GW ET     =           0.0000                 GW ET     =           0.0000
     SURFACE LEAKAGE     =           0.0000       SURFACE LEAKAGE     =           0.0000
           AG WELLS      =           0.0000             AG WELLS      =           0.0000

                TOTAL IN =  1262732544.0000                  TOTAL IN =          71.4007

          OUT:                                     OUT:
          ----                                     ----
             STORAGE     =   253220064.0000               STORAGE     =           0.3684
       CONSTANT HEAD     =           0.0000         CONSTANT HEAD     =           0.0000
     HEAD DEP BOUNDS     =    14005179.0000       HEAD DEP BOUNDS     =           0.2960
      STREAM LEAKAGE     =   490769152.0000        STREAM LEAKAGE     =          10.3279
        UZF RECHARGE     =           0.0000          UZF RECHARGE     =           0.0000
               GW ET     =    16319887.0000                 GW ET     =           0.7570
     SURFACE LEAKAGE     =           0.0000       SURFACE LEAKAGE     =           0.0000
           AG WELLS      =   488419232.0000             AG WELLS      =          59.6516

               TOTAL OUT =  1262733440.0000                 TOTAL OUT =          71.4009

                IN - OUT =        -896.0000                  IN - OUT =      -2.1362E-04

     PERCENT DISCREPANCY =          -0.00         PERCENT DISCREPANCY =          -0.00






         TIME SUMMARY AT END OF TIME STEP    1 IN STRESS PERIOD   20
                    SECONDS     MINUTES      HOURS       DAYS        YEARS
                    -----------------------------------------------------------
   TIME STEP LENGTH  87667.      1461.1      24.352      1.0147     2.77799E-03
 STRESS PERIOD TIME  87667.      1461.1      24.352      1.0147     2.77799E-03
         TOTAL TIME 4.75142E+07 7.91903E+05  13198.      549.93      1.5056    
1
 
 SOLVING FOR HEAD 
                                                   Max.-Head-Change                         Max.-Flux-Residual
  Residual-Control   Outer-Iter.   Inner-Iter.     Column Row Layer    Maximum-Head-Change  Column Row Layer    Maximum-Flux-Residual          L2-NORM 
          0                 1           2             4    7     1      -0.1618340446E+00       4    7    1        -0.8465471899E+01      0.1962659467E+02
          0                 2           2             4    7     1       0.1574177096E-01       4    7    1         0.8465293255E+00      0.1962618575E+01
          0                 3           2             4    7     1      -0.1071958870E-02       4    7    1        -0.5925724741E-01      0.1373824428E+00
          0                 4           1             4    7     1       0.4265423426E-04       4    7    1         0.2423624008E-02      0.5618865110E-02

    ------------------------------------------------
       NWT REQUIRED            4 OUTER ITERATIONS 
       AND A TOTAL OF          7 INNER ITERATIONS.
    ------------------------------------------------

 NO OUTPUT CONTROL FOR STRESS PERIOD   20   TIME STEP    2
 
 SOLVING FOR HEAD 
                                                   Max.-Head-Change                         Max.-Flux-Residual
  Residual-Control   Outer-Iter.   Inner-Iter.     Column Row Layer    Maximum-Head-Change  Column Row Layer    Maximum-Flux-Residual          L2-NORM 
          0                 1           2             4    7     1      -0.1606991638E+00       4    7    1        -0.8408736502E+01      0.1932947411E+02
          0                 2           2             4    7     1       0.1563136402E-01       4    7    1         0.8408548352E+00      0.1932911877E+01
          0                 3           2             4    7     1      -0.1064440704E-02       4    7    1        -0.5886004191E-01      0.1353034686E+00
          0                 4           1             4    7     1       0.4235507876E-04       4    7    1         0.2407378238E-02      0.5533881331E-02

    ------------------------------------------------
       NWT REQUIRED            4 OUTER ITERATIONS 
       AND A TOTAL OF          7 INNER ITERATIONS.
    ------------------------------------------------

 NO OUTPUT CONTROL FOR STRESS PERIOD   20   TIME STEP    3
 
 SOLVING FOR HEAD 
                                                   Max.-Head-Change                         Max.-Flux-Residual
  Residual-Control   Outer-Iter.   Inner-Iter.     Column Row Layer    Maximum-Head-Change  Column Row Layer    Maximum-Flux-Residual          L2-NORM 
          0                 1           2             4    7     1      -0.1595255182E+00       4    7    1        -0.8349755396E+01      0.1904663425E+02
          0                 2           2             4    7     1       0.1551718812E-01       4    7    1         0.8349558948E+00      0.1904630787E+01
          0                 3           2             4    7     1      -0.1056665867E-02       4    7    1        -0.5844712376E-01      0.1333240729E+00
          0                 4           1             4    7     1       0.4204571017E-04       4    7    1         0.2390489820E-02      0.5452938485E-02

    ------------------------------------------------
       NWT REQUIRED            4 OUTER ITERATIONS 
       AND A TOTAL OF          7 INNER ITERATIONS.
    ------------------------------------------------

 NO OUTPUT CONTROL FOR STRESS PERIOD   20   TIME STEP    4
 
 SOLVING FOR HEAD 
                                                   Max.-Head-Change                         Max.-Flux-Residual
  Residual-Control   Outer-Iter.   Inner-Iter.     Column Row Layer    Maximum-Head-Change  Column Row Layer    Maximum-Flux-Residual          L2-NORM 
          0                 1           2             4    7     1      -0.1583175186E+00       4    7    1        -0.8288771727E+01      0.1877665300E+02
          0                 2           2             4    7     1       0.1539967217E-01       4    7    1         0.8288568099E+00      0.1877634334E+01
          0                 3           2             4    7     1      -0.1048663570E-02       4    7    1        -0.5802019442E-01      0.1314344741E+00
          0                 4           1             4    7     1       0.4172729083E-04       4    7    1         0.2373028368E-02      0.5375676717E-02

    ------------------------------------------------
       NWT REQUIRED            4 OUTER ITERATIONS 
       AND A TOTAL OF          7 INNER ITERATIONS.
    ------------------------------------------------

 NO OUTPUT CONTROL FOR STRESS PERIOD   20   TIME STEP    5
 
 SOLVING FOR HEAD 
                                                   Max.-Head-Change                         Max.-Flux-Residual
  Residual-Control   Outer-Iter.   Inner-Iter.     Column Row Layer    Maximum-Head-Change  Column Row Layer    Maximum-Flux-Residual          L2-NORM 
          0                 1           2             4    7     1      -0.1570790621E+00       4    7    1        -0.8226000491E+01      0.1851843832E+02
          0                 2           2             4    7     1       0.1527919513E-01       4    7    1         0.8225790715E+00      0.1851813929E+01
          0                 3           2             4    7     1      -0.1040459618E-02       4    7    1        -0.5758075835E-01      0.1296271220E+00
          0                 4           1             4    7     1       0.4140084744E-04       4    7    1         0.2355055379E-02      0.5301747165E-02

    ------------------------------------------------
       NWT REQUIRED            4 OUTER ITERATIONS 
       AND A TOTAL OF          7 INNER ITERATIONS.
    ------------------------------------------------

 NO OUTPUT CONTROL FOR STRESS PERIOD   20   TIME STEP    6
 
 SOLVING FOR HEAD 
                                                   Max.-Head-Change                         Max.-Flux-Residual
  Residual-Control   Outer-Iter.   Inner-Iter.     Column Row Layer    Maximum-Head-Change  Column Row Layer    Maximum-Flux-Residual          L2-NORM 
          0                 1           2             4    7     1      -0.1558139107E+00       4    7    1        -0.8161650140E+01      0.1827107810E+02
          0                 2           2             4    7     1       0.1515612282E-01       4    7    1         0.8161435164E+00      0.1827078627E+01
          0                 3           2             4    7     1      -0.1032078924E-02       4    7    1        -0.5713027423E-01      0.1278957022E+00
          0                 4           1             4    7     1       0.4106737137E-04       4    7    1         0.2336630522E-02      0.5230932442E-02

    ------------------------------------------------
       NWT REQUIRED            4 OUTER ITERATIONS 
       AND A TOTAL OF          7 INNER ITERATIONS.
    ------------------------------------------------

 NO OUTPUT CONTROL FOR STRESS PERIOD   20   TIME STEP    7
 
 SOLVING FOR HEAD 
                                                   Max.-Head-Change                         Max.-Flux-Residual
  Residual-Control   Outer-Iter.   Inner-Iter.     Column Row Layer    Maximum-Head-Change  Column Row Layer    Maximum-Flux-Residual          L2-NORM 
          0                 1           2             4    7     1      -0.1545254334E+00       4    7    1        -0.8095907458E+01      0.1803379866E+02
          0                 2           2             4    7     1       0.1503078283E-01       4    7    1         0.8095688157E+00      0.1803351241E+01
          0                 3           2             4    7     1      -0.1023543796E-02       4    7    1        -0.5667004907E-01      0.1262348119E+00
          0                 4           1             4    7     1       0.4072775047E-04       4    7    1         0.2317807264E-02      0.5163006457E-02

    ------------------------------------------------
       NWT REQUIRED            4 OUTER ITERATIONS 
       AND A TOTAL OF          7 INNER ITERATIONS.
    ------------------------------------------------

 NO OUTPUT CONTROL FOR STRESS PERIOD   20   TIME STEP    8
 
 SOLVING FOR HEAD 
                                                   Max.-Head-Change                         Max.-Flux-Residual
  Residual-Control   Outer-Iter.   Inner-Iter.     Column Row Layer    Maximum-Head-Change  Column Row Layer    Maximum-Flux-Residual          L2-NORM 
          0                 1           2             4    7     1      -0.1532167958E+00       4    7    1        -0.8028948095E+01      0.1780591126E+02
          0                 2           2             4    7     1       0.1490348298E-01       4    7    1         0.8028725272E+00      0.1780562986E+01
          0                 3           2             4    7     1      -0.1014875198E-02       4    7    1        -0.5620131201E-01      0.1246396557E+00
          0                 4           1             4    7     1       0.4038281851E-04       4    7    1         0.2298635877E-02      0.5097762198E-02

    ------------------------------------------------
       NWT REQUIRED            4 OUTER ITERATIONS 
       AND A TOTAL OF          7 INNER ITERATIONS.
    ------------------------------------------------

 NO OUTPUT CONTROL FOR STRESS PERIOD   20   TIME STEP    9
 
 SOLVING FOR HEAD 
                                                   Max.-Head-Change                         Max.-Flux-Residual
  Residual-Control   Outer-Iter.   Inner-Iter.     Column Row Layer    Maximum-Head-Change  Column Row Layer    Maximum-Flux-Residual          L2-NORM 
          0                 1           2             4    7     1      -0.1518913692E+00       4    7    1        -0.7960959106E+01      0.1758681789E+02
          0                 2           2             4    7     1       0.1477454978E-01       4    7    1         0.7960733495E+00      0.1758621616E+01
          0                 3           2             4    7     1      -0.1006095365E-02       4    7    1        -0.5572537198E-01      0.1231037668E+00
          0                 4           1             4    7     1       0.4003346093E-04       4    7    1         0.2279169903E-02      0.5034945948E-02

    ------------------------------------------------
       NWT REQUIRED            4 OUTER ITERATIONS 
       AND A TOTAL OF          7 INNER ITERATIONS.
    ------------------------------------------------

 NO OUTPUT CONTROL FOR STRESS PERIOD   20   TIME STEP   10
 
 SOLVING FOR HEAD 
                                                   Max.-Head-Change                         Max.-Flux-Residual
  Residual-Control   Outer-Iter.   Inner-Iter.     Column Row Layer    Maximum-Head-Change  Column Row Layer    Maximum-Flux-Residual          L2-NORM 
          0                 1           2             4    7     1      -0.1505516024E+00       4    7    1        -0.7892076865E+01      0.1737598065E+02
          0                 2           2             4    7     1       0.1464422532E-01       4    7    1         0.7891849140E+00      0.1737570829E+01
          0                 3           2             4    7     1      -0.9972207815E-03       4    7    1        -0.5524318330E-01      0.1216302185E+00
          0                 4           1             4    7     1       0.3968033281E-04       4    7    1         0.2259448346E-02      0.4974678784E-02

    ------------------------------------------------
       NWT REQUIRED            4 OUTER ITERATIONS 
       AND A TOTAL OF          7 INNER ITERATIONS.
    ------------------------------------------------

 NO OUTPUT CONTROL FOR STRESS PERIOD   20   TIME STEP   11
 
 SOLVING FOR HEAD 
                                                   Max.-Head-Change                         Max.-Flux-Residual
  Residual-Control   Outer-Iter.   Inner-Iter.     Column Row Layer    Maximum-Head-Change  Column Row Layer    Maximum-Flux-Residual          L2-NORM 
          0                 1           2             4    7     1      -0.1492003262E+00       4    7    1        -0.7822459312E+01      0.1717288903E+02
          0                 2           2             4    7     1       0.1451278088E-01       4    7    1         0.7822230085E+00      0.1717262105E+01
          0                 3           2             4    7     1      -0.9882699234E-03       4    7    1        -0.5475585112E-01      0.1202086157E+00
          0                 4           1             4    7     1       0.3932416980E-04       4    7    1         0.2239516439E-02      0.4916535948E-02

    ------------------------------------------------
       NWT REQUIRED            4 OUTER ITERATIONS 
       AND A TOTAL OF          7 INNER ITERATIONS.
    ------------------------------------------------

 NO OUTPUT CONTROL FOR STRESS PERIOD   20   TIME STEP   12
 
 SOLVING FOR HEAD 
                                                   Max.-Head-Change                         Max.-Flux-Residual
  Residual-Control   Outer-Iter.   Inner-Iter.     Column Row Layer    Maximum-Head-Change  Column Row Layer    Maximum-Flux-Residual          L2-NORM 
          0                 1           2             4    7     1      -0.1478401431E+00       4    7    1        -0.7752251528E+01      0.1697706756E+02
          0                 2           2             4    7     1       0.1438047086E-01       4    7    1         0.7752021356E+00      0.1697680399E+01
          0                 3           2             4    7     1      -0.9792601144E-03       4    7    1        -0.5426439071E-01      0.1188378958E+00
          0                 4           1             4    7     1       0.3896566107E-04       4    7    1         0.2219415673E-02      0.4860474238E-02

    ------------------------------------------------
       NWT REQUIRED            4 OUTER ITERATIONS 
       AND A TOTAL OF          7 INNER ITERATIONS.
    ------------------------------------------------

 NO OUTPUT CONTROL FOR STRESS PERIOD   20   TIME STEP   13
 
 SOLVING FOR HEAD 
                                                   Max.-Head-Change                         Max.-Flux-Residual
  Residual-Control   Outer-Iter.   Inner-Iter.     Column Row Layer    Maximum-Head-Change  Column Row Layer    Maximum-Flux-Residual          L2-NORM 
          0                 1           2             4    7     1      -0.1464731039E+00       4    7    1        -0.7681568353E+01      0.1678808250E+02
          0                 2           2             4    7     1       0.1424749469E-01       4    7    1         0.7681337743E+00      0.1678782333E+01
          0                 3           2             4    7     1      -0.9702049347E-03       4    7    1        -0.5376960561E-01      0.1175150277E+00
          0                 4           1             4    7     1       0.3860534680E-04       4    7    1         0.2199178918E-02      0.4806367538E-02

    ------------------------------------------------
       NWT REQUIRED            4 OUTER ITERATIONS 
       AND A TOTAL OF          7 INNER ITERATIONS.
    ------------------------------------------------

 NO OUTPUT CONTROL FOR STRESS PERIOD   20   TIME STEP   14
 
 SOLVING FOR HEAD 
                                                   Max.-Head-Change                         Max.-Flux-Residual
  Residual-Control   Outer-Iter.   Inner-Iter.     Column Row Layer    Maximum-Head-Change  Column Row Layer    Maximum-Flux-Residual          L2-NORM 
          0                 1           2             4    7     1      -0.1451013281E+00       4    7    1        -0.7610528849E+01      0.1660553884E+02
          0                 2           2             4    7     1       0.1411405844E-01       4    7    1         0.7610298262E+00      0.1660528413E+01
          0                 3           2             4    7     1      -0.9611184197E-03       4    7    1        -0.5327232902E-01      0.1162372546E+00
          0                 4           1             4    7     1       0.3824378592E-04       4    7    1         0.2178840274E-02      0.4754108665E-02

    ------------------------------------------------
       NWT REQUIRED            4 OUTER ITERATIONS 
       AND A TOTAL OF          7 INNER ITERATIONS.
    ------------------------------------------------

 NO OUTPUT CONTROL FOR STRESS PERIOD   20   TIME STEP   15
 
 SOLVING FOR HEAD 
                                                   Max.-Head-Change                         Max.-Flux-Residual
  Residual-Control   Outer-Iter.   Inner-Iter.     Column Row Layer    Maximum-Head-Change  Column Row Layer    Maximum-Flux-Residual          L2-NORM 
          0                 1           2             4    7     1      -0.1437269490E+00       4    7    1        -0.7539252118E+01      0.1642909213E+02
          0                 2           2             4    7     1       0.1398036957E-01       4    7    1         0.7539021967E+00      0.1642884198E+01
          0                 3           2             4    7     1      -0.9520146964E-03       4    7    1        -0.5277339433E-01      0.1150021566E+00
          0                 4           1             4    7     1       0.3788154026E-04       4    7    1         0.2158433817E-02      0.4703591735E-02

    ------------------------------------------------
       NWT REQUIRED            4 OUTER ITERATIONS 
       AND A TOTAL OF          7 INNER ITERATIONS.
    ------------------------------------------------

 NO OUTPUT CONTROL FOR STRESS PERIOD   20   TIME STEP   16
 
 SOLVING FOR HEAD 
                                                   Max.-Head-Change                         Max.-Flux-Residual
  Residual-Control   Outer-Iter.   Inner-Iter.     Column Row Layer    Maximum-Head-Change  Column Row Layer    Maximum-Flux-Residual          L2-NORM 
          0                 1           2             4    7     1      -0.1423517654E+00       4    7    1        -0.7467839562E+01      0.1625840142E+02
          0                 2           2             4    7     1       0.1384660299E-01       4    7    1         0.7467610220E+00      0.1625815584E+01
          0                 3           2             4    7     1      -0.9429056754E-03       4    7    1        -0.5227351110E-01      0.1138073522E+00
          0                 4           1             4    7     1       0.3751908392E-04       4    7    1         0.2137988578E-02      0.4654723581E-02

    ------------------------------------------------
       NWT REQUIRED            4 OUTER ITERATIONS 
       AND A TOTAL OF          7 INNER ITERATIONS.
    ------------------------------------------------

 NO OUTPUT CONTROL FOR STRESS PERIOD   20   TIME STEP   17
 
 SOLVING FOR HEAD 
                                                   Max.-Head-Change                         Max.-Flux-Residual
  Residual-Control   Outer-Iter.   Inner-Iter.     Column Row Layer    Maximum-Head-Change  Column Row Layer    Maximum-Flux-Residual          L2-NORM 
          0                 1           2             4    7     1      -0.1409773386E+00       4    7    1        -0.7396379049E+01      0.1609315469E+02
          0                 2           2             4    7     1       0.1371291052E-01       4    7    1         0.7396150854E+00      0.1609291369E+01
          0                 3           2             4    7     1      -0.9338016966E-03       4    7    1        -0.5177329425E-01      0.1126506548E+00
          0                 4           1             4    7     1       0.3715682814E-04       4    7    1         0.2117529682E-02      0.4607416774E-02

    ------------------------------------------------
       NWT REQUIRED            4 OUTER ITERATIONS 
       AND A TOTAL OF          7 INNER ITERATIONS.
    ------------------------------------------------

 NO OUTPUT CONTROL FOR STRESS PERIOD   20   TIME STEP   18
 
 SOLVING FOR HEAD 
                                                   Max.-Head-Change                         Max.-Flux-Residual
  Residual-Control   Outer-Iter.   Inner-Iter.     Column Row Layer    Maximum-Head-Change  Column Row Layer    Maximum-Flux-Residual          L2-NORM 
          0                 1           2             4    7     1      -0.1396053284E+00       4    7    1        -0.7324964236E+01      0.1593307628E+02
          0                 2           2             4    7     1       0.1357945357E-01       4    7    1         0.7324737487E+00      0.1593283986E+01
          0                 3           2             4    7     1      -0.9247137508E-03       4    7    1        -0.5127339908E-01      0.1115301353E+00
          0                 4           1             4    7     1       0.3679521062E-04       4    7    1         0.2097083955E-02      0.4561586656E-02

    ------------------------------------------------
       NWT REQUIRED            4 OUTER ITERATIONS 
       AND A TOTAL OF          7 INNER ITERATIONS.
    ------------------------------------------------

 NO OUTPUT CONTROL FOR STRESS PERIOD   20   TIME STEP   19
 
 SOLVING FOR HEAD 
                                                   Max.-Head-Change                         Max.-Flux-Residual
  Residual-Control   Outer-Iter.   Inner-Iter.     Column Row Layer    Maximum-Head-Change  Column Row Layer    Maximum-Flux-Residual          L2-NORM 
          0                 1           2             4    7     1      -0.1382371653E+00       4    7    1        -0.7253675788E+01      0.1577790101E+02
          0                 2           2             4    7     1       0.1344637122E-01       4    7    1         0.7253450752E+00      0.1577766919E+01
          0                 3           2             4    7     1      -0.9156513113E-03       4    7    1        -0.5077439013E-01      0.1104439363E+00
          0                 4           1             4    7     1       0.3643460737E-04       4    7    1         0.2076674457E-02      0.4517160771E-02

    ------------------------------------------------
       NWT REQUIRED            4 OUTER ITERATIONS 
       AND A TOTAL OF          7 INNER ITERATIONS.
    ------------------------------------------------

 NO OUTPUT CONTROL FOR STRESS PERIOD   20   TIME STEP   20
 
 SOLVING FOR HEAD 
                                                   Max.-Head-Change                         Max.-Flux-Residual
  Residual-Control   Outer-Iter.   Inner-Iter.     Column Row Layer    Maximum-Head-Change  Column Row Layer    Maximum-Flux-Residual          L2-NORM 
          0                 1           2             4    7     1      -0.1368740105E+00       4    7    1        -0.7182579628E+01      0.1562738472E+02
          0                 2           2             4    7     1       0.1331377639E-01       4    7    1         0.7182356546E+00      0.1562715746E+01
          0                 3           2             4    7     1      -0.9066220656E-03       4    7    1        -0.5027672861E-01      0.1093903532E+00
          0                 4           1             4    7     1       0.3607532579E-04       4    7    1         0.2056320087E-02      0.4474072399E-02

    ------------------------------------------------
       NWT REQUIRED            4 OUTER ITERATIONS 
       AND A TOTAL OF          7 INNER ITERATIONS.
    ------------------------------------------------

 NO OUTPUT CONTROL FOR STRESS PERIOD   20   TIME STEP   21
 
 SOLVING FOR HEAD 
                                                   Max.-Head-Change                         Max.-Flux-Residual
  Residual-Control   Outer-Iter.   Inner-Iter.     Column Row Layer    Maximum-Head-Change  Column Row Layer    Maximum-Flux-Residual          L2-NORM 
          0                 1           2             4    7     1      -0.1355170304E+00       4    7    1        -0.7111742303E+01      0.1548129602E+02
          0                 2           2             4    7     1       0.1318178250E-01       4    7    1         0.7111521385E+00      0.1548107329E+01
          0                 3           2             4    7     1      -0.8976337393E-03       4    7    1        -0.4978088020E-01      0.1083677573E+00
          0                 4           1             4    7     1       0.3571767223E-04       4    7    1         0.2036039885E-02      0.4432244591E-02

    ------------------------------------------------
       NWT REQUIRED            4 OUTER ITERATIONS 
       AND A TOTAL OF          7 INNER ITERATIONS.
    ------------------------------------------------

 NO OUTPUT CONTROL FOR STRESS PERIOD   20   TIME STEP   22
 
 SOLVING FOR HEAD 
                                                   Max.-Head-Change                         Max.-Flux-Residual
  Residual-Control   Outer-Iter.   Inner-Iter.     Column Row Layer    Maximum-Head-Change  Column Row Layer    Maximum-Flux-Residual          L2-NORM 
          0                 1           2             4    7     1      -0.1341675722E+00       4    7    1        -0.7041239834E+01      0.1533942681E+02
          0                 2           2             4    7     1       0.1305052056E-01       4    7    1         0.7041021265E+00      0.1533920859E+01
          0                 3           2             4    7     1      -0.8886952526E-03       4    7    1        -0.4928737694E-01      0.1073747025E+00
          0                 4           1             4    7     1       0.3536200117E-04       4    7    1         0.2015855564E-02      0.4391629666E-02

    ------------------------------------------------
       NWT REQUIRED            4 OUTER ITERATIONS 
       AND A TOTAL OF          7 INNER ITERATIONS.
    ------------------------------------------------

 NO OUTPUT CONTROL FOR STRESS PERIOD   20   TIME STEP   23
 
 SOLVING FOR HEAD 
                                                   Max.-Head-Change                         Max.-Flux-Residual
  Residual-Control   Outer-Iter.   Inner-Iter.     Column Row Layer    Maximum-Head-Change  Column Row Layer    Maximum-Flux-Residual          L2-NORM 
          0                 1           2             4    7     1      -0.1328263573E+00       4    7    1        -0.6971113854E+01      0.1520158608E+02
          0                 2           2             4    7     1       0.1292006070E-01       4    7    1         0.6970897797E+00      0.1520137227E+01
          0                 3           2             4    7     1      -0.8798113833E-03       4    7    1        -0.4879651007E-01      0.1064098426E+00
          0                 4           1             4    7     1       0.3500850417E-04       4    7    1         0.1995779095E-02      0.4352165816E-02

    ------------------------------------------------
       NWT REQUIRED            4 OUTER ITERATIONS 
       AND A TOTAL OF          7 INNER ITERATIONS.
    ------------------------------------------------

 NO OUTPUT CONTROL FOR STRESS PERIOD   20   TIME STEP   24
 
 SOLVING FOR HEAD 
                                                   Max.-Head-Change                         Max.-Flux-Residual
  Residual-Control   Outer-Iter.   Inner-Iter.     Column Row Layer    Maximum-Head-Change  Column Row Layer    Maximum-Flux-Residual          L2-NORM 
          0                 1           2             4    7     1      -0.1314944069E+00       4    7    1        -0.6901422692E+01      0.1506757873E+02
          0                 2           2             4    7     1       0.1279050223E-01       4    7    1         0.6901209287E+00      0.1506736933E+01
          0                 3           2             4    7     1      -0.8709888924E-03       4    7    1        -0.4830868778E-01      0.1054718195E+00
          0                 4           1             4    7     1       0.3465744926E-04       4    7    1         0.1975827154E-02      0.4313802536E-02

    ------------------------------------------------
       NWT REQUIRED            4 OUTER ITERATIONS 
       AND A TOTAL OF          7 INNER ITERATIONS.
    ------------------------------------------------

 NO OUTPUT CONTROL FOR STRESS PERIOD   20   TIME STEP   25
 
 SOLVING FOR HEAD 
                                                   Max.-Head-Change                         Max.-Flux-Residual
  Residual-Control   Outer-Iter.   Inner-Iter.     Column Row Layer    Maximum-Head-Change  Column Row Layer    Maximum-Flux-Residual          L2-NORM 
          0                 1           2             4    7     1      -0.1301726342E+00       4    7    1        -0.6832218326E+01      0.1493725178E+02
          0                 2           2             4    7     1       0.1266193394E-01       4    7    1         0.6832007695E+00      0.1493704671E+01
          0                 3           2             4    7     1      -0.8622338284E-03       4    7    1        -0.4782427380E-01      0.1045595573E+00
          0                 4           1             4    7     1       0.3430907695E-04       4    7    1         0.1956014596E-02      0.4276491122E-02

    ------------------------------------------------
       NWT REQUIRED            4 OUTER ITERATIONS 
       AND A TOTAL OF          7 INNER ITERATIONS.
    ------------------------------------------------

 NO OUTPUT CONTROL FOR STRESS PERIOD   20   TIME STEP   26
 
 SOLVING FOR HEAD 
                                                   Max.-Head-Change                         Max.-Flux-Residual
  Residual-Control   Outer-Iter.   Inner-Iter.     Column Row Layer    Maximum-Head-Change  Column Row Layer    Maximum-Flux-Residual          L2-NORM 
          0                 1           2             4    7     1      -0.1288616332E+00       4    7    1        -0.6763535452E+01      0.1481042887E+02
          0                 2           2             4    7     1       0.1253441360E-01       4    7    1         0.6763327699E+00      0.1481022808E+01
          0                 3           2             4    7     1      -0.8535501237E-03       4    7    1        -0.4734351090E-01      0.1036718242E+00
          0                 4           1             4    7     1       0.3396354459E-04       4    7    1         0.1936351387E-02      0.4240182688E-02

    ------------------------------------------------
       NWT REQUIRED            4 OUTER ITERATIONS 
       AND A TOTAL OF          7 INNER ITERATIONS.
    ------------------------------------------------

 NO OUTPUT CONTROL FOR STRESS PERIOD   20   TIME STEP   27
 
 SOLVING FOR HEAD 
                                                   Max.-Head-Change                         Max.-Flux-Residual
  Residual-Control   Outer-Iter.   Inner-Iter.     Column Row Layer    Maximum-Head-Change  Column Row Layer    Maximum-Flux-Residual          L2-NORM 
          0                 1           2             4    7     1      -0.1275620274E+00       4    7    1        -0.6695410242E+01      0.1468696751E+02
          0                 2           2             4    7     1       0.1240800183E-01       4    7    1         0.6695205454E+00      0.1468677089E+01
          0                 3           2             4    7     1      -0.8449419076E-03       4    7    1        -0.4686665218E-01      0.1028076185E+00
          0                 4           1             4    7     1       0.3362101592E-04       4    7    1         0.1916847844E-02      0.4204837090E-02

    ------------------------------------------------
       NWT REQUIRED            4 OUTER ITERATIONS 
       AND A TOTAL OF          7 INNER ITERATIONS.
    ------------------------------------------------

 NO OUTPUT CONTROL FOR STRESS PERIOD   20   TIME STEP   28
 
 SOLVING FOR HEAD 
                                                   Max.-Head-Change                         Max.-Flux-Residual
  Residual-Control   Outer-Iter.   Inner-Iter.     Column Row Layer    Maximum-Head-Change  Column Row Layer    Maximum-Flux-Residual          L2-NORM 
          0                 1           2             4    7     1      -0.1262745380E+00       4    7    1        -0.6627884211E+01      0.1456672546E+02
          0                 2           2             4    7     1       0.1228276876E-01       4    7    1         0.6627682460E+00      0.1456653298E+01
          0                 3           2             4    7     1      -0.8364139551E-03       4    7    1        -0.4639398814E-01      0.1019659502E+00
          0                 4           1             4    7     1       0.3328168054E-04       4    7    1         0.1897515873E-02      0.4170420493E-02

    ------------------------------------------------
       NWT REQUIRED            4 OUTER ITERATIONS 
       AND A TOTAL OF          7 INNER ITERATIONS.
    ------------------------------------------------

 NO OUTPUT CONTROL FOR STRESS PERIOD   20   TIME STEP   29
 
 SOLVING FOR HEAD 
                                                   Max.-Head-Change                         Max.-Flux-Residual
  Residual-Control   Outer-Iter.   Inner-Iter.     Column Row Layer    Maximum-Head-Change  Column Row Layer    Maximum-Flux-Residual          L2-NORM 
          0                 1           2             4    7     1      -0.1249997291E+00       4    7    1        -0.6560986516E+01      0.1446452669E+02
          0                 2           2             4    7     1       0.1215876925E-01       4    7    1         0.6560787869E+00      0.1446404770E+01
          0                 3           2             4    7     1      -0.8279700030E-03       4    7    1        -0.4592572287E-01      0.1012458558E+00
          0                 4           1             4    7     1       0.3294568824E-04       4    7    1         0.1878363823E-02      0.4140801404E-02

    ------------------------------------------------
       NWT REQUIRED            4 OUTER ITERATIONS 
       AND A TOTAL OF          7 INNER ITERATIONS.
    ------------------------------------------------

 NO OUTPUT CONTROL FOR STRESS PERIOD   20   TIME STEP   30



 STREAM LISTING     PERIOD     20   STEP       30

 LAYER ROW COL. STREAM  RCH.  FLOW INTO     FLOW TO   FLOW OUT OF   OVRLND.     DIRECT     STREAM       STREAM     STREAM     STREAM   STREAMBED  STREAMBED
                SEG.NO.  NO.  STRM. RCH.    AQUIFER    STRM. RCH.    RUNOFF     PRECIP       ET          HEAD       DEPTH      WIDTH   CONDCTNC.   GRADIENT

   1    1    1     1     1    4.3035E+01  3.1412E-01   4.2721E+01  0.000E+00  0.000E+00  0.000E+00  1.09440E+03  1.353E+00  1.604E+01  7.216E-02  1.451E+00
   1    2    2     1     2    4.2721E+01  4.8658E-01   4.2235E+01  0.000E+00  0.000E+00  0.000E+00  1.08941E+03  1.350E+00  1.598E+01  1.118E-01  1.450E+00
   1    3    3     1     3    4.2235E+01  4.1507E-01   4.1819E+01  0.000E+00  0.000E+00  0.000E+00  1.08377E+03  1.347E+00  1.591E+01  9.548E-02  1.449E+00
   1    3    4     1     4    4.1819E+01  3.8230E-01   4.1437E+01  0.000E+00  0.000E+00  0.000E+00  1.07875E+03  1.344E+00  1.586E+01  8.800E-02  1.448E+00
   1    4    5     2     1    3.9437E+01  3.5748E-01   3.9080E+01  0.000E+00  0.000E+00  0.000E+00  1.07352E+03  1.583E+00  1.200E+01  7.800E-02  1.528E+00
   1    5    6     2     2    3.9080E+01  2.7453E-01   3.8805E+01  0.000E+00  0.000E+00  0.000E+00  1.06808E+03  1.575E+00  1.200E+01  6.000E-02  1.525E+00
   1    6    6     2     3    3.8805E+01  2.7413E-01   3.8531E+01  0.000E+00  0.000E+00  0.000E+00  1.06336E+03  1.569E+00  1.200E+01  6.000E-02  1.523E+00
   1    7    6     2     4    3.8531E+01  2.7372E-01   3.8257E+01  0.000E+00  0.000E+00  0.000E+00  1.05864E+03  1.562E+00  1.200E+01  6.000E-02  1.521E+00
   1    8    6     2     5    3.8257E+01  2.7332E-01   3.7984E+01  0.000E+00  0.000E+00  0.000E+00  1.05391E+03  1.555E+00  1.200E+01  6.000E-02  1.518E+00
   1    3    5     3     1    2.0000E+00  2.8252E-01   1.7175E+00  0.000E+00  0.000E+00  0.000E+00  1.07555E+03  1.909E+00  9.636E+00  7.227E-02  1.955E+00
   1    3    6     3     2    1.7175E+00  2.4905E-01   1.4684E+00  0.000E+00  0.000E+00  0.000E+00  1.07264E+03  1.727E+00  8.909E+00  6.682E-02  1.864E+00
   1    3    7     3     3    1.4684E+00  1.9718E-01   1.2712E+00  0.000E+00  0.000E+00  0.000E+00  1.06987E+03  1.555E+00  8.218E+00  5.547E-02  1.777E+00
   1    4    8     3     4    1.2712E+00  2.2567E-01   1.0456E+00  0.000E+00  0.000E+00  0.000E+00  1.06682E+03  1.364E+00  7.455E+00  6.709E-02  1.682E+00
   1    5    8     3     5    1.0456E+00  1.5790E-01   8.8768E-01  0.000E+00  0.000E+00  0.000E+00  1.06362E+03  1.164E+00  6.655E+00  4.991E-02  1.582E+00
   1    6    8     3     6    8.8768E-01  5.5980E-02   8.3170E-01  0.000E+00  0.000E+00  0.000E+00  1.06158E+03  1.036E+00  6.145E+00  1.844E-02  1.518E+00
   1    5   10     4     1    1.0000E+01  9.0919E-02   9.9091E+00  0.000E+00  0.000E+00  0.000E+00  1.07836E+03  6.368E-01  1.000E+01  2.500E-02  1.212E+00
   1    5    9     4     2    9.9091E+00  1.8158E-01   9.7275E+00  0.000E+00  0.000E+00  0.000E+00  1.07154E+03  6.315E-01  1.000E+01  5.000E-02  1.211E+00
   1    6    8     4     3    9.7275E+00  1.2689E-01   9.6006E+00  0.000E+00  0.000E+00  0.000E+00  1.06381E+03  6.256E-01  1.000E+01  3.500E-02  1.209E+00
   1    6    8     5     1    1.0432E+01  2.2686E-01   1.0205E+01  0.000E+00  0.000E+00  0.000E+00  1.05868E+03  6.790E-01  1.542E+01  6.166E-02  1.226E+00
   1    7    7     5     2    1.0205E+01  2.7894E-01   9.9265E+00  0.000E+00  0.000E+00  0.000E+00  1.05417E+03  6.732E-01  1.519E+01  7.594E-02  1.224E+00
   1    8    7     5     3    9.9265E+00  1.9221E-01   9.7343E+00  0.000E+00  0.000E+00  0.000E+00  1.04992E+03  6.676E-01  1.497E+01  5.241E-02  1.223E+00
   1    8    6     5     4    9.7343E+00  1.3577E-01   9.5985E+00  0.000E+00  0.000E+00  0.000E+00  1.04691E+03  6.637E-01  1.482E+01  3.706E-02  1.221E+00
   1    9    6     6     1    4.7583E+01  2.8760E-01   4.7295E+01  0.000E+00  0.000E+00  0.000E+00  1.04452E+03  1.793E+00  1.200E+01  6.000E-02  1.598E+00
   1   10    7     6     2    4.7295E+01  2.8721E-01   4.7008E+01  0.000E+00  0.000E+00  0.000E+00  1.03997E+03  1.787E+00  1.200E+01  6.000E-02  1.596E+00
   1   11    7     6     3    4.7008E+01  2.8681E-01   4.6721E+01  0.000E+00  0.000E+00  0.000E+00  1.03542E+03  1.780E+00  1.200E+01  6.000E-02  1.593E+00
   1   12    7     6     4    4.6721E+01  2.8642E-01   4.6434E+01  0.000E+00  0.000E+00  0.000E+00  1.03086E+03  1.774E+00  1.200E+01  6.000E-02  1.591E+00
   1   13    7     6     5    4.6434E+01  1.4216E-02   4.6420E+01  0.000E+00  0.000E+00  0.000E+00  1.02768E+03  1.770E+00  1.200E+01  2.400E-02  1.974E-01
   1   14    9     7     1    1.5000E+02  1.3324E+00   1.4867E+02  0.000E+00  0.000E+00  0.000E+00  1.03987E+03  2.288E+00  5.529E+01  5.593E-01  7.941E-01
   1   13    8     7     2    1.4867E+02  1.8289E+00   1.4684E+02  0.000E+00  0.000E+00  0.000E+00  1.03478E+03  2.279E+00  5.526E+01  6.148E-01  9.917E-01
   1   13    7     7     3    1.4684E+02  1.4536E+00   1.4539E+02  0.000E+00  0.000E+00  0.000E+00  1.02969E+03  2.271E+00  5.522E+01  5.585E-01  8.676E-01
   1   13    6     8     1    1.9181E+02  9.8761E-01   1.9082E+02  0.000E+00  0.000E+00  0.000E+00  1.02496E+03  3.086E+00  4.475E+01  4.560E-01  7.220E-01
   1   13    5     8     2    1.9082E+02  2.0843E-01   1.9061E+02  0.000E+00  0.000E+00  0.000E+00  1.01871E+03  3.082E+00  4.469E+01  4.554E-01  1.525E-01
   1   13    4     8     3    1.9061E+02 -2.4485E+00   1.9306E+02  0.000E+00  0.000E+00  0.000E+00  1.01246E+03  3.089E+00  4.479E+01  4.564E+00 -1.788E-01
   1   13    3     8     4    1.9306E+02 -3.5775E+00   1.9664E+02  0.000E+00  0.000E+00  0.000E+00  1.00623E+03  3.107E+00  4.505E+01  4.591E+00 -2.597E-01
   1   13    2     8     5    1.9664E+02 -2.7407E+00   1.9938E+02  0.000E+00  0.000E+00  0.000E+00  1.00000E+03  3.126E+00  4.533E+01  4.619E+00 -1.978E-01
   1   13    1     8     6    1.9938E+02 -2.1021E+00   2.0148E+02  0.000E+00  0.000E+00  0.000E+00  9.95015E+02  3.140E+00  4.553E+01  2.784E+00 -2.517E-01





UNSATURATED ZONE PACKAGE VOLUMETRIC BUDGET FOR  TIME STEP    30 STRESS PERIOD   20
  ------------------------------------------------------------------------------



     CUMULATIVE VOLUMES      L**3       RATES FOR THIS TIME STEP      L**3/T
     ------------------                 ------------------------

           IN:                                      IN:
           ---                                      ---
        INFILTRATION =   860312242.9167          INFILTRATION =          64.0485

          OUT:                                     OUT:
          ----                                     ----
              UZF ET =   805316892.4608                UZF ET =          64.1075
        UZF RECHARGE =      797698.7981          UZF RECHARGE =       0.0000E+00

            IN - OUT =    54197651.6579              IN - OUT =      -5.8969E-02

          STORAGE:                                 STORAGE:
          --------                                 --------
      STORAGE CHANGE =    54198595.7742        STORAGE CHANGE =      -5.8971E-02

 PERCENT DISCREPANCY IS DIFFERENCE BETWEEN IN-OUT MINUS CHANGE IN STORAGE
 DIVIDED BY THE AVERAGE OF IN AND OUT TIMES 100

 PERCENT DISCREPANCY =          -0.00     PERCENT DISCREPANCY =           0.00






1
  VOLUMETRIC BUDGET FOR AGRICULTURAL FIELDS AT TIME STEP   30, STRESS PERIOD  20
  ------------------------------------------------------------------------------

     CUMULATIVE VOLUMES      L**3       RATES FOR THIS TIME STEP      L**3/T
     ------------------                 ------------------------

           IN:                                      IN:
           ---                                      ---
               AG WELLS  =   639995904.0000                 AG WELLS  =          59.6410
      DIVERSION SEGMENTS =           0.0000        DIVERSION SEGMENTS =           0.0000
           GW IRRIGATION =           0.0000             GW IRRIGATION =           0.0000
           SW IRRIGATION =           0.0000             SW IRRIGATION =           0.0000
        SYSTEM LOSSES GW =           0.0000          SYSTEM LOSSES GW =           0.0000
        SYSTEM LOSSES SW =           0.0000          SYSTEM LOSSES SW =           0.0000

                TOTAL IN =   639995904.0000                  TOTAL IN =          59.6410

          OUT:                                     OUT:
          ----                                     ----
               AG WELLS  =           0.0000                 AG WELLS  =           0.0000
      DIVERSION SEGMENTS =           0.0000        DIVERSION SEGMENTS =           0.0000
           GW IRRIGATION =   639995904.0000             GW IRRIGATION =          59.6410
           SW IRRIGATION =           0.0000             SW IRRIGATION =           0.0000
        SYSTEM LOSSES GW =           0.0000          SYSTEM LOSSES GW =           0.0000
        SYSTEM LOSSES SW =           0.0000          SYSTEM LOSSES SW =           0.0000

               TOTAL OUT =   639995904.0000                 TOTAL OUT =          59.6410

                IN - OUT =           0.0000                  IN - OUT =           0.0000

     PERCENT DISCREPANCY =           0.00         PERCENT DISCREPANCY =           0.00



1
  VOLUMETRIC BUDGET FOR ENTIRE MODEL AT END OF TIME STEP   30, STRESS PERIOD  20
  ------------------------------------------------------------------------------

     CUMULATIVE VOLUMES      L**3       RATES FOR THIS TIME STEP      L**3/T
     ------------------                 ------------------------

           IN:                                      IN:
           ---                                      ---
             STORAGE     =   798346496.0000               STORAGE     =          58.6131
       CONSTANT HEAD     =           0.0000         CONSTANT HEAD     =           0.0000
     HEAD DEP BOUNDS     =    14286892.0000       HEAD DEP BOUNDS     =           0.2855
      STREAM LEAKAGE     =   629435456.0000        STREAM LEAKAGE     =          12.4259
        UZF RECHARGE     =      797698.6250          UZF RECHARGE     =           0.0000
               GW ET     =           0.0000                 GW ET     =           0.0000
     SURFACE LEAKAGE     =           0.0000       SURFACE LEAKAGE     =           0.0000
           AG WELLS      =           0.0000             AG WELLS      =           0.0000

                TOTAL IN =  1442866560.0000                  TOTAL IN =          71.3246

          OUT:                                     OUT:
          ----                                     ----
             STORAGE     =   254135040.0000               STORAGE     =           0.2838
       CONSTANT HEAD     =           0.0000         CONSTANT HEAD     =           0.0000
     HEAD DEP BOUNDS     =    14756650.0000       HEAD DEP BOUNDS     =           0.2953
      STREAM LEAKAGE     =   516680704.0000        STREAM LEAKAGE     =          10.8688
        UZF RECHARGE     =           0.0000          UZF RECHARGE     =           0.0000
               GW ET     =    17299522.0000                 GW ET     =           0.2358
     SURFACE LEAKAGE     =           0.0000       SURFACE LEAKAGE     =           0.0000
           AG WELLS      =   639995904.0000             AG WELLS      =          59.6410

               TOTAL OUT =  1442867712.0000                 TOTAL OUT =          71.3248

                IN - OUT =       -1152.0000                  IN - OUT =      -2.0599E-04

     PERCENT DISCREPANCY =          -0.00         PERCENT DISCREPANCY =          -0.00






         TIME SUMMARY AT END OF TIME STEP   30 IN STRESS PERIOD   20
                    SECONDS     MINUTES      HOURS       DAYS        YEARS
                    -----------------------------------------------------------
   TIME STEP LENGTH  87667.      1461.1      24.352      1.0147     2.77799E-03
 STRESS PERIOD TIME 2.63000E+06  43833.      730.56      30.440     8.33397E-02
         TOTAL TIME 5.00565E+07 8.34276E+05  13905.      579.36      1.5862    
1
1
                            STRESS PERIOD NO.   21, LENGTH =   2630000.    
                            -----------------------------------------------

                              NUMBER OF TIME STEPS =    30

                               MULTIPLIER FOR DELT =     1.000

                            INITIAL TIME STEP SIZE =   87666.66    

 REUSING NON-PARAMETER GHB CELLS FROM LAST STRESS PERIOD

      2 GHB CELLS

 REUSING STREAM SEGMENT DATA FROM LAST STRESS PERIOD



            AREAL INFILTRATION RATE
 READING ON UNIT   19 WITH FORMAT: (10F4.0)            

            1           2           3           4           5           6           7           8           9          10
 ........................................................................................................................
   1   1.2000E-09   0.000       0.000       0.000       0.000       0.000       0.000       0.000       0.000       0.000    
   2   2.1000E-09  2.0000E-09  8.0000E-10  8.5000E-09   0.000       0.000       0.000       0.000       0.000       0.000    
   3   5.0000E-10  1.1000E-09  8.8000E-09  5.5000E-09   0.000       0.000       0.000       0.000       0.000       0.000    
   4   8.5000E-09  1.1000E-09  1.1000E-09  1.1000E-09  2.0000E-09   0.000       0.000       0.000       0.000       0.000    
   5   8.5000E-09  1.1000E-09  1.1000E-09  1.1000E-09  1.1000E-09   0.000       0.000       0.000       0.000       0.000    
   6   8.5000E-09  5.2000E-09  2.1000E-09  1.1000E-09  1.5000E-09   0.000       0.000       0.000       0.000       0.000    
   7   8.5000E-09  5.2000E-09  2.1000E-09  1.2000E-09  2.0000E-09   0.000       0.000       0.000       0.000       0.000    
   8   5.0000E-10  5.2000E-09  2.1000E-09  1.2000E-09  5.0000E-09   0.000       0.000       0.000       0.000       0.000    
   9   5.0000E-10  5.2000E-09  2.1000E-09  1.2000E-09  5.0000E-09   0.000       0.000       0.000       0.000       0.000    
  10   5.0000E-10  5.2000E-09  2.1000E-09  1.2000E-09  5.8000E-09   0.000       0.000       0.000       0.000       0.000    
  11   1.0000E-10  1.1000E-09  1.1000E-09  1.2000E-09  5.0000E-09   0.000       0.000       0.000       0.000       0.000    
  12   1.1000E-09  1.1000E-09  1.1000E-09  1.1000E-09  2.0000E-09   0.000       0.000       0.000       0.000       0.000    
  13   1.1000E-09  2.2000E-09  2.2000E-09  2.1000E-09  1.0000E-09   0.000       0.000       0.000       0.000       0.000    
  14   2.0000E-10  5.5000E-09  5.5000E-09  5.2000E-09  1.0000E-09   0.000       0.000       0.000       0.000       0.000    
  15    0.000      8.8000E-09  8.8000E-09   0.000       0.000       0.000       0.000       0.000       0.000       0.000    

                  ET RATE =  3.250000E-07

 USING ET EXTINCTION DEPTH FROM PREVIOUS STRESS PERIOD. CURRENT PERIOD IS:      21

 USING EXTINCTION WATER CONTENT FROM PREVIOUS STRESS PERIOD. CURRENT PERIOD IS:      21

 USING AIR ENTRY PRESSURE FROM PREVIOUS STRESS PERIOD. CURRENT PERIOD IS:      21

 USING ROOT PRESSURE HEAD FROM PREVIOUS STRESS PERIOD. CURRENT PERIOD IS:      21

 USING ROOT ACTIVITY FROM PREVIOUS STRESS PERIOD. CURRENT PERIOD IS:      21

 PROCESSING AG STRESS PERIOD DATA

 READING AG STRESS PERIOD DATA

 READING IRRIGATION WELL

 END PROCESSING AG STRESS PERIOD DATA OPTIONS
 
 SOLVING FOR HEAD 
                                                   Max.-Head-Change                         Max.-Flux-Residual
  Residual-Control   Outer-Iter.   Inner-Iter.     Column Row Layer    Maximum-Head-Change  Column Row Layer    Maximum-Flux-Residual          L2-NORM 
          0                 1           2             4    7     1      -0.8782192991E-01       4    7    1        -0.4619745451E+01      0.1034799317E+02
          0                 2           2             4    7     1       0.8542500540E-02       4    7    1         0.4619624868E+00      0.1034721706E+01
          0                 3           2             4    7     1      -0.5817143623E-03       4    7    1        -0.3233750213E-01      0.7245924318E-01
          0                 4           1             4    7     1       0.2314695091E-04       4    7    1         0.1322605130E-02      0.2967976809E-02

    ------------------------------------------------
       NWT REQUIRED            4 OUTER ITERATIONS 
       AND A TOTAL OF          7 INNER ITERATIONS.
    ------------------------------------------------

 NO OUTPUT CONTROL FOR STRESS PERIOD   21   TIME STEP    1
 
 SOLVING FOR HEAD 
                                                   Max.-Head-Change                         Max.-Flux-Residual
  Residual-Control   Outer-Iter.   Inner-Iter.     Column Row Layer    Maximum-Head-Change  Column Row Layer    Maximum-Flux-Residual          L2-NORM 
          0                 1           2             4    7     1      -0.8676048820E-01       4    7    1        -0.4563071743E+01      0.1028317520E+02
          0                 2           2             4    7     1       0.8439256879E-02       4    7    1         0.4562955025E+00      0.1028251010E+01
          0                 3           2             4    7     1      -0.5746837965E-03       4    7    1        -0.3194080940E-01      0.7197240682E-01
          0                 4           1             4    7     1       0.2286719844E-04       4    7    1         0.1306380406E-02      0.2943360537E-02

    ------------------------------------------------
       NWT REQUIRED            4 OUTER ITERATIONS 
       AND A TOTAL OF          7 INNER ITERATIONS.
    ------------------------------------------------

 NO OUTPUT CONTROL FOR STRESS PERIOD   21   TIME STEP    2
 
 SOLVING FOR HEAD 
                                                   Max.-Head-Change                         Max.-Flux-Residual
  Residual-Control   Outer-Iter.   Inner-Iter.     Column Row Layer    Maximum-Head-Change  Column Row Layer    Maximum-Flux-Residual          L2-NORM 
          0                 1           2             4    7     1      -0.8572731226E-01       4    7    1        -0.4507918300E+01      0.1022075100E+02
          0                 2           2             4    7     1       0.8338762469E-02       4    7    1         0.4507805284E+00      0.1022020101E+01
          0                 3           2             4    7     1      -0.5678404466E-03       4    7    1        -0.3155475755E-01      0.7153725877E-01
          0                 4           1             4    7     1       0.2259489553E-04       4    7    1         0.1290590880E-02      0.2925627136E-02

    ------------------------------------------------
       NWT REQUIRED            4 OUTER ITERATIONS 
       AND A TOTAL OF          7 INNER ITERATIONS.
    ------------------------------------------------

 NO OUTPUT CONTROL FOR STRESS PERIOD   21   TIME STEP    3
 
 SOLVING FOR HEAD 
                                                   Max.-Head-Change                         Max.-Flux-Residual
  Residual-Control   Outer-Iter.   Inner-Iter.     Column Row Layer    Maximum-Head-Change  Column Row Layer    Maximum-Flux-Residual          L2-NORM 
          0                 1           2             4    7     1      -0.8472150963E-01       4    7    1        -0.4454237764E+01      0.1016016648E+02
          0                 2           2             4    7     1       0.8240930507E-02       4    7    1         0.4454128296E+00      0.1015970377E+01
          0                 3           2             4    7     1      -0.5611784019E-03       4    7    1        -0.3117901511E-01      0.7111451263E-01
          0                 4           1             4    7     1       0.2232980698E-04       4    7    1         0.1275223019E-02      0.2908371651E-02

    ------------------------------------------------
       NWT REQUIRED            4 OUTER ITERATIONS 
       AND A TOTAL OF          7 INNER ITERATIONS.
    ------------------------------------------------

 NO OUTPUT CONTROL FOR STRESS PERIOD   21   TIME STEP    4
 
 SOLVING FOR HEAD 
                                                   Max.-Head-Change                         Max.-Flux-Residual
  Residual-Control   Outer-Iter.   Inner-Iter.     Column Row Layer    Maximum-Head-Change  Column Row Layer    Maximum-Flux-Residual          L2-NORM 
          0                 1           2             4    7     1      -0.8374205761E-01       4    7    1        -0.4401975635E+01      0.1010120153E+02
          0                 2           2             4    7     1       0.8145661524E-02       4    7    1         0.4401869565E+00      0.1010080741E+01
          0                 3           2             4    7     1      -0.5546908884E-03       4    7    1        -0.3081320063E-01      0.7070284674E-01
          0                 4           1             4    7     1       0.2207166258E-04       4    7    1         0.1260261183E-02      0.2891561872E-02

    ------------------------------------------------
       NWT REQUIRED            4 OUTER ITERATIONS 
       AND A TOTAL OF          7 INNER ITERATIONS.
    ------------------------------------------------

 NO OUTPUT CONTROL FOR STRESS PERIOD   21   TIME STEP    5
 
 SOLVING FOR HEAD 
                                                   Max.-Head-Change                         Max.-Flux-Residual
  Residual-Control   Outer-Iter.   Inner-Iter.     Column Row Layer    Maximum-Head-Change  Column Row Layer    Maximum-Flux-Residual          L2-NORM 
          0                 1           2             4    7     1      -0.8278798588E-01       4    7    1        -0.4351079837E+01      0.1004371438E+02
          0                 2           2             4    7     1       0.8052861142E-02       4    7    1         0.4350977025E+00      0.1004337454E+01
          0                 3           2             4    7     1      -0.5483714797E-03       4    7    1        -0.3045694961E-01      0.7030130624E-01
          0                 4           1             4    7     1       0.2182020789E-04       4    7    1         0.1245690522E-02      0.2875185905E-02

    ------------------------------------------------
       NWT REQUIRED            4 OUTER ITERATIONS 
       AND A TOTAL OF          7 INNER ITERATIONS.
    ------------------------------------------------

 NO OUTPUT CONTROL FOR STRESS PERIOD   21   TIME STEP    6
 
 SOLVING FOR HEAD 
                                                   Max.-Head-Change                         Max.-Flux-Residual
  Residual-Control   Outer-Iter.   Inner-Iter.     Column Row Layer    Maximum-Head-Change  Column Row Layer    Maximum-Flux-Residual          L2-NORM 
          0                 1           2             4    7     1      -0.8185850028E-01       4    7    1        -0.4301508279E+01      0.9987564540E+01
          0                 2           2             4    7     1       0.7962452164E-02       4    7    1         0.4301408588E+00      0.9987606361E+00
          0                 3           2             4    7     1      -0.5422149187E-03       4    7    1        -0.3010996744E-01      0.6991132485E-01
          0                 4           1             4    7     1       0.2157523271E-04       4    7    1         0.1231498952E-02      0.2859236518E-02

    ------------------------------------------------
       NWT REQUIRED            4 OUTER ITERATIONS 
       AND A TOTAL OF          7 INNER ITERATIONS.
    ------------------------------------------------

 NO OUTPUT CONTROL FOR STRESS PERIOD   21   TIME STEP    7
 
 SOLVING FOR HEAD 
                                                   Max.-Head-Change                         Max.-Flux-Residual
  Residual-Control   Outer-Iter.   Inner-Iter.     Column Row Layer    Maximum-Head-Change  Column Row Layer    Maximum-Flux-Residual          L2-NORM 
          0                 1           2             4    7     1      -0.8095266726E-01       4    7    1        -0.4253210604E+01      0.9932670397E+01
          0                 2           2             4    7     1       0.7874343718E-02       4    7    1         0.4253113904E+00      0.9932782668E+00
          0                 3           2             4    7     1      -0.5362150171E-03       4    7    1        -0.2977190168E-01      0.6952785543E-01
          0                 4           1             4    7     1       0.2133649099E-04       4    7    1         0.1217672040E-02      0.2843594684E-02

    ------------------------------------------------
       NWT REQUIRED            4 OUTER ITERATIONS 
       AND A TOTAL OF          7 INNER ITERATIONS.
    ------------------------------------------------

 NO OUTPUT CONTROL FOR STRESS PERIOD   21   TIME STEP    8
 
 SOLVING FOR HEAD 
                                                   Max.-Head-Change                         Max.-Flux-Residual
  Residual-Control   Outer-Iter.   Inner-Iter.     Column Row Layer    Maximum-Head-Change  Column Row Layer    Maximum-Flux-Residual          L2-NORM 
          0                 1           2             4    7     1      -0.8006974926E-01       4    7    1        -0.4206147580E+01      0.9878917139E+01
          0                 2           2             4    7     1       0.7788464026E-02       4    7    1         0.4206053747E+00      0.9878687392E+00
          0                 3           2             4    7     1      -0.5303668874E-03       4    7    1        -0.2944247773E-01      0.6914942799E-01
          0                 4           1             4    7     1       0.2110378910E-04       4    7    1         0.1204198609E-02      0.2828109668E-02

    ------------------------------------------------
       NWT REQUIRED            4 OUTER ITERATIONS 
       AND A TOTAL OF          7 INNER ITERATIONS.
    ------------------------------------------------

 NO OUTPUT CONTROL FOR STRESS PERIOD   21   TIME STEP    9
 
 SOLVING FOR HEAD 
                                                   Max.-Head-Change                         Max.-Flux-Residual
  Residual-Control   Outer-Iter.   Inner-Iter.     Column Row Layer    Maximum-Head-Change  Column Row Layer    Maximum-Flux-Residual          L2-NORM 
          0                 1           2             4    7     1      -0.7920887265E-01       4    7    1        -0.4160271794E+01      0.9826280270E+01
          0                 2           2             4    7     1       0.7704728244E-02       4    7    1         0.4160180710E+00      0.9826074850E+00
          0                 3           2             4    7     1      -0.5246647514E-03       4    7    1        -0.2912136372E-01      0.6878137167E-01
          0                 4           1             4    7     1       0.2087689562E-04       4    7    1         0.1191065032E-02      0.2813095593E-02

    ------------------------------------------------
       NWT REQUIRED            4 OUTER ITERATIONS 
       AND A TOTAL OF          7 INNER ITERATIONS.
    ------------------------------------------------

 NO OUTPUT CONTROL FOR STRESS PERIOD   21   TIME STEP   10
 
 SOLVING FOR HEAD 
                                                   Max.-Head-Change                         Max.-Flux-Residual
  Residual-Control   Outer-Iter.   Inner-Iter.     Column Row Layer    Maximum-Head-Change  Column Row Layer    Maximum-Flux-Residual          L2-NORM 
          0                 1           2             4    7     1      -0.7836922312E-01       4    7    1        -0.4115539847E+01      0.9774721969E+01
          0                 2           2             4    7     1       0.7623042036E-02       4    7    1         0.4115451399E+00      0.9774463377E+00
          0                 3           2             4    7     1      -0.5191021856E-03       4    7    1        -0.2880825595E-01      0.6842158683E-01
          0                 4           1             4    7     1       0.2065555614E-04       4    7    1         0.1178258928E-02      0.2798356620E-02

    ------------------------------------------------
       NWT REQUIRED            4 OUTER ITERATIONS 
       AND A TOTAL OF          7 INNER ITERATIONS.
    ------------------------------------------------

 NO OUTPUT CONTROL FOR STRESS PERIOD   21   TIME STEP   11
 
 SOLVING FOR HEAD 
                                                   Max.-Head-Change                         Max.-Flux-Residual
  Residual-Control   Outer-Iter.   Inner-Iter.     Column Row Layer    Maximum-Head-Change  Column Row Layer    Maximum-Flux-Residual          L2-NORM 
          0                 1           2             4    7     1      -0.7755014630E-01       4    7    1        -0.4071908418E+01      0.9724217396E+01
          0                 2           2             4    7     1       0.7543387067E-02       4    7    1         0.4071822507E+00      0.9724068728E+00
          0                 3           2             4    7     1      -0.5136779409E-03       4    7    1        -0.2850285115E-01      0.6806802062E-01
          0                 4           1             4    7     1       0.2043972078E-04       4    7    1         0.1165767871E-02      0.2783982249E-02

    ------------------------------------------------
       NWT REQUIRED            4 OUTER ITERATIONS 
       AND A TOTAL OF          7 INNER ITERATIONS.
    ------------------------------------------------

 NO OUTPUT CONTROL FOR STRESS PERIOD   21   TIME STEP   12
 
 SOLVING FOR HEAD 
                                                   Max.-Head-Change                         Max.-Flux-Residual
  Residual-Control   Outer-Iter.   Inner-Iter.     Column Row Layer    Maximum-Head-Change  Column Row Layer    Maximum-Flux-Residual          L2-NORM 
          0                 1           2             4    7     1      -0.7675095604E-01       4    7    1        -0.4029350323E+01      0.9674730700E+01
          0                 2           2             4    7     1       0.7465651216E-02       4    7    1         0.4029266844E+00      0.9674575195E+00
          0                 3           2             4    7     1      -0.5083843827E-03       4    7    1        -0.2820495908E-01      0.6772127159E-01
          0                 4           1             4    7     1       0.2022908540E-04       4    7    1         0.1153584082E-02      0.2769735811E-02

    ------------------------------------------------
       NWT REQUIRED            4 OUTER ITERATIONS 
       AND A TOTAL OF          7 INNER ITERATIONS.
    ------------------------------------------------

 NO OUTPUT CONTROL FOR STRESS PERIOD   21   TIME STEP   13
 
 SOLVING FOR HEAD 
                                                   Max.-Head-Change                         Max.-Flux-Residual
  Residual-Control   Outer-Iter.   Inner-Iter.     Column Row Layer    Maximum-Head-Change  Column Row Layer    Maximum-Flux-Residual          L2-NORM 
          0                 1           2             4    7     1      -0.7597089147E-01       4    7    1        -0.3987823240E+01      0.9626193169E+01
          0                 2           2             4    7     1       0.7389775628E-02       4    7    1         0.3987742094E+00      0.9626049620E+00
          0                 3           2             4    7     1      -0.5032175026E-03       4    7    1        -0.2791428348E-01      0.6738169351E-01
          0                 4           1             4    7     1       0.2002349007E-04       4    7    1         0.1141695422E-02      0.2755858635E-02

    ------------------------------------------------
       NWT REQUIRED            4 OUTER ITERATIONS 
       AND A TOTAL OF          7 INNER ITERATIONS.
    ------------------------------------------------

 NO OUTPUT CONTROL FOR STRESS PERIOD   21   TIME STEP   14
 
 SOLVING FOR HEAD 
                                                   Max.-Head-Change                         Max.-Flux-Residual
  Residual-Control   Outer-Iter.   Inner-Iter.     Column Row Layer    Maximum-Head-Change  Column Row Layer    Maximum-Flux-Residual          L2-NORM 
          0                 1           2             4    7     1      -0.7520937688E-01       4    7    1        -0.3947296070E+01      0.9578576542E+01
          0                 2           2             4    7     1       0.7315704311E-02       4    7    1         0.3947217162E+00      0.9578442935E+00
          0                 3           2             4    7     1      -0.4981734882E-03       4    7    1        -0.2763060672E-01      0.6704852390E-01
          0                 4           1             4    7     1       0.1982278421E-04       4    7    1         0.1130093033E-02      0.2742241999E-02

    ------------------------------------------------
       NWT REQUIRED            4 OUTER ITERATIONS 
       AND A TOTAL OF          7 INNER ITERATIONS.
    ------------------------------------------------

 NO OUTPUT CONTROL FOR STRESS PERIOD   21   TIME STEP   15
 
 SOLVING FOR HEAD 
                                                   Max.-Head-Change                         Max.-Flux-Residual
  Residual-Control   Outer-Iter.   Inner-Iter.     Column Row Layer    Maximum-Head-Change  Column Row Layer    Maximum-Flux-Residual          L2-NORM 
          0                 1           2             4    7     1      -0.7446557773E-01       4    7    1        -0.3907723497E+01      0.9531843848E+01
          0                 2           2             4    7     1       0.7243356093E-02       4    7    1         0.3907646738E+00      0.9531719458E+00
          0                 3           2             4    7     1      -0.4932468122E-03       4    7    1        -0.2735361161E-01      0.6672153757E-01
          0                 4           1             4    7     1       0.1962674746E-04       4    7    1         0.1118763934E-02      0.2728866719E-02

    ------------------------------------------------
       NWT REQUIRED            4 OUTER ITERATIONS 
       AND A TOTAL OF          7 INNER ITERATIONS.
    ------------------------------------------------

 NO OUTPUT CONTROL FOR STRESS PERIOD   21   TIME STEP   16
 
 SOLVING FOR HEAD 
                                                   Max.-Head-Change                         Max.-Flux-Residual
  Residual-Control   Outer-Iter.   Inner-Iter.     Column Row Layer    Maximum-Head-Change  Column Row Layer    Maximum-Flux-Residual          L2-NORM 
          0                 1           2             4    7     1      -0.7373892299E-01       4    7    1        -0.3869074851E+01      0.9485962254E+01
          0                 2           2             4    7     1       0.7172676716E-02       4    7    1         0.3869000156E+00      0.9486499801E+00
          0                 3           2             4    7     1      -0.4884337791E-03       4    7    1        -0.2708308347E-01      0.6640507191E-01
          0                 4           1             4    7     1       0.1943523224E-04       4    7    1         0.1107699327E-02      0.2715951967E-02

    ------------------------------------------------
       NWT REQUIRED            4 OUTER ITERATIONS 
       AND A TOTAL OF          7 INNER ITERATIONS.
    ------------------------------------------------

 NO OUTPUT CONTROL FOR STRESS PERIOD   21   TIME STEP   17
 
 SOLVING FOR HEAD 
                                                   Max.-Head-Change                         Max.-Flux-Residual
  Residual-Control   Outer-Iter.   Inner-Iter.     Column Row Layer    Maximum-Head-Change  Column Row Layer    Maximum-Flux-Residual          L2-NORM 
          0                 1           2             4    7     1      -0.7302881800E-01       4    7    1        -0.3831317969E+01      0.9440865032E+01
          0                 2           2             4    7     1       0.7103604496E-02       4    7    1         0.3831245256E+00      0.9440757057E+00
          0                 3           2             4    7     1      -0.4837301885E-03       4    7    1        -0.2681879718E-01      0.6608492941E-01
          0                 4           1             4    7     1       0.1924807241E-04       4    7    1         0.1096890018E-02      0.2702853620E-02

    ------------------------------------------------
       NWT REQUIRED            4 OUTER ITERATIONS 
       AND A TOTAL OF          7 INNER ITERATIONS.
    ------------------------------------------------

 NO OUTPUT CONTROL FOR STRESS PERIOD   21   TIME STEP   18
 
 SOLVING FOR HEAD 
                                                   Max.-Head-Change                         Max.-Flux-Residual
  Residual-Control   Outer-Iter.   Inner-Iter.     Column Row Layer    Maximum-Head-Change  Column Row Layer    Maximum-Flux-Residual          L2-NORM 
          0                 1           2             4    7     1      -0.7233474856E-01       4    7    1        -0.3794424704E+01      0.9396512675E+01
          0                 2           2             4    7     1       0.7023759269E-02       4    7    1         0.3786309319E+00      0.9395888052E+00
          0                 3           2             4    7     1      -0.4782929505E-03       4    7    1        -0.2650424049E-01      0.6577088821E-01
          0                 4           1             4    7     1       0.1903172002E-04       4    7    1         0.1084024642E-02      0.2690006557E-02

    ------------------------------------------------
       NWT REQUIRED            4 OUTER ITERATIONS 
       AND A TOTAL OF          7 INNER ITERATIONS.
    ------------------------------------------------

 NO OUTPUT CONTROL FOR STRESS PERIOD   21   TIME STEP   19
 
 SOLVING FOR HEAD 
                                                   Max.-Head-Change                         Max.-Flux-Residual
  Residual-Control   Outer-Iter.   Inner-Iter.     Column Row Layer    Maximum-Head-Change  Column Row Layer    Maximum-Flux-Residual          L2-NORM 
          0                 1           2             4    7     1      -0.7168685301E-01       4    7    1        -0.3759021228E+01      0.9352983385E+01
          0                 2           2             4    7     1       0.6973076807E-02       4    7    1         0.3758954685E+00      0.9352887578E+00
          0                 3           2             4    7     1      -0.4748416496E-03       4    7    1        -0.2631275712E-01      0.6546993348E-01
          0                 4           1             4    7     1       0.1889438948E-04       4    7    1         0.1076192973E-02      0.2677709649E-02

    ------------------------------------------------
       NWT REQUIRED            4 OUTER ITERATIONS 
       AND A TOTAL OF          7 INNER ITERATIONS.
    ------------------------------------------------

 NO OUTPUT CONTROL FOR STRESS PERIOD   21   TIME STEP   20
 
 SOLVING FOR HEAD 
                                                   Max.-Head-Change                         Max.-Flux-Residual
  Residual-Control   Outer-Iter.   Inner-Iter.     Column Row Layer    Maximum-Head-Change  Column Row Layer    Maximum-Flux-Residual          L2-NORM 
          0                 1           2             4    7     1      -0.7103955235E-01       4    7    1        -0.3724688625E+01      0.9310243197E+01
          0                 2           2             4    7     1       0.6910114420E-02       4    7    1         0.3724623651E+00      0.9310152346E+00
          0                 3           2             4    7     1      -0.4705541218E-03       4    7    1        -0.2607243830E-01      0.6517082093E-01
          0                 4           1             4    7     1       0.1872378465E-04       4    7    1         0.1066363920E-02      0.2665470674E-02

    ------------------------------------------------
       NWT REQUIRED            4 OUTER ITERATIONS 
       AND A TOTAL OF          7 INNER ITERATIONS.
    ------------------------------------------------

 NO OUTPUT CONTROL FOR STRESS PERIOD   21   TIME STEP   21
 
 SOLVING FOR HEAD 
                                                   Max.-Head-Change                         Max.-Flux-Residual
  Residual-Control   Outer-Iter.   Inner-Iter.     Column Row Layer    Maximum-Head-Change  Column Row Layer    Maximum-Flux-Residual          L2-NORM 
          0                 1           2             4    7     1      -0.7040538377E-01       4    7    1        -0.3691059989E+01      0.9268226226E+01
          0                 2           2             4    7     1       0.6848429350E-02       4    7    1         0.3690996532E+00      0.9268139714E+00
          0                 3           2             4    7     1      -0.4663535753E-03       4    7    1        -0.2583704693E-01      0.6487676726E-01
          0                 4           1             4    7     1       0.1855664125E-04       4    7    1         0.1056736406E-02      0.2653452244E-02

    ------------------------------------------------
       NWT REQUIRED            4 OUTER ITERATIONS 
       AND A TOTAL OF          7 INNER ITERATIONS.
    ------------------------------------------------

 NO OUTPUT CONTROL FOR STRESS PERIOD   21   TIME STEP   22
 
 SOLVING FOR HEAD 
                                                   Max.-Head-Change                         Max.-Flux-Residual
  Residual-Control   Outer-Iter.   Inner-Iter.     Column Row Layer    Maximum-Head-Change  Column Row Layer    Maximum-Flux-Residual          L2-NORM 
          0                 1           2             4    7     1      -0.6978390559E-01       4    7    1        -0.3658111323E+01      0.9226931889E+01
          0                 2           2             4    7     1       0.6787978636E-02       4    7    1         0.3658049333E+00      0.9226849598E+00
          0                 3           2             4    7     1      -0.4622370849E-03       4    7    1        -0.2560641505E-01      0.6458775429E-01
          0                 4           1             4    7     1       0.1839284254E-04       4    7    1         0.1047303570E-02      0.2641621392E-02

    ------------------------------------------------
       NWT REQUIRED            4 OUTER ITERATIONS 
       AND A TOTAL OF          7 INNER ITERATIONS.
    ------------------------------------------------

 NO OUTPUT CONTROL FOR STRESS PERIOD   21   TIME STEP   23
 
 SOLVING FOR HEAD 
                                                   Max.-Head-Change                         Max.-Flux-Residual
  Residual-Control   Outer-Iter.   Inner-Iter.     Column Row Layer    Maximum-Head-Change  Column Row Layer    Maximum-Flux-Residual          L2-NORM 
          0                 1           2             4    7     1      -0.6917472173E-01       4    7    1        -0.3625821634E+01      0.9186331665E+01
          0                 2           2             4    7     1       0.6728723751E-02       4    7    1         0.3625761061E+00      0.9186253005E+00
          0                 3           2             4    7     1      -0.4582020259E-03       4    7    1        -0.2538039570E-01      0.6430361873E-01
          0                 4           1             4    7     1       0.1823228351E-04       4    7    1         0.1038059355E-02      0.2630014039E-02

    ------------------------------------------------
       NWT REQUIRED            4 OUTER ITERATIONS 
       AND A TOTAL OF          7 INNER ITERATIONS.
    ------------------------------------------------

 NO OUTPUT CONTROL FOR STRESS PERIOD   21   TIME STEP   24
 
 SOLVING FOR HEAD 
                                                   Max.-Head-Change                         Max.-Flux-Residual
  Residual-Control   Outer-Iter.   Inner-Iter.     Column Row Layer    Maximum-Head-Change  Column Row Layer    Maximum-Flux-Residual          L2-NORM 
          0                 1           2             4    7     1      -0.6857730803E-01       4    7    1        -0.3594162187E+01      0.9146408529E+01
          0                 2           2             4    7     1       0.6670613717E-02       4    7    1         0.3594102986E+00      0.9146333070E+00
          0                 3           2             4    7     1      -0.4542449288E-03       4    7    1        -0.2515878779E-01      0.6402417959E-01
          0                 4           1             4    7     1       0.1807482729E-04       4    7    1         0.1028995602E-02      0.2618578267E-02

    ------------------------------------------------
       NWT REQUIRED            4 OUTER ITERATIONS 
       AND A TOTAL OF          7 INNER ITERATIONS.
    ------------------------------------------------

 NO OUTPUT CONTROL FOR STRESS PERIOD   21   TIME STEP   25
 
 SOLVING FOR HEAD 
                                                   Max.-Head-Change                         Max.-Flux-Residual
  Residual-Control   Outer-Iter.   Inner-Iter.     Column Row Layer    Maximum-Head-Change  Column Row Layer    Maximum-Flux-Residual          L2-NORM 
          0                 1           2             4    7     1      -0.6799140348E-01       4    7    1        -0.3563119338E+01      0.9107144386E+01
          0                 2           2             4    7     1       0.6613623144E-02       4    7    1         0.3563061465E+00      0.9107071933E+00
          0                 3           2             4    7     1      -0.4503640626E-03       4    7    1        -0.2494149579E-01      0.6374936818E-01
          0                 4           1             4    7     1       0.1792040388E-04       4    7    1         0.1020108341E-02      0.2607336783E-02

    ------------------------------------------------
       NWT REQUIRED            4 OUTER ITERATIONS 
       AND A TOTAL OF          7 INNER ITERATIONS.
    ------------------------------------------------

 NO OUTPUT CONTROL FOR STRESS PERIOD   21   TIME STEP   26
 
 SOLVING FOR HEAD 
                                                   Max.-Head-Change                         Max.-Flux-Residual
  Residual-Control   Outer-Iter.   Inner-Iter.     Column Row Layer    Maximum-Head-Change  Column Row Layer    Maximum-Flux-Residual          L2-NORM 
          0                 1           2             4    7     1      -0.6741678092E-01       4    7    1        -0.3532680506E+01      0.9068528067E+01
          0                 2           2             4    7     1       0.6557729938E-02       4    7    1         0.3532623918E+00      0.9068458474E+00
          0                 3           2             4    7     1      -0.4465579239E-03       4    7    1        -0.2472843165E-01      0.6347910933E-01
          0                 4           1             4    7     1       0.1776895433E-04       4    7    1         0.1011394013E-02      0.2596287648E-02

    ------------------------------------------------
       NWT REQUIRED            4 OUTER ITERATIONS 
       AND A TOTAL OF          7 INNER ITERATIONS.
    ------------------------------------------------

 NO OUTPUT CONTROL FOR STRESS PERIOD   21   TIME STEP   27
 
 SOLVING FOR HEAD 
                                                   Max.-Head-Change                         Max.-Flux-Residual
  Residual-Control   Outer-Iter.   Inner-Iter.     Column Row Layer    Maximum-Head-Change  Column Row Layer    Maximum-Flux-Residual          L2-NORM 
          0                 1           2             4    7     1      -0.6685298501E-01       4    7    1        -0.3502821332E+01      0.9030540700E+01
          0                 2           2             4    7     1       0.6502889809E-02       4    7    1         0.3502765989E+00      0.9030473700E+00
          0                 3           2             4    7     1      -0.4428234964E-03       4    7    1        -0.2451942488E-01      0.6321323723E-01
          0                 4           1             4    7     1       0.1762035810E-04       4    7    1         0.1002845638E-02      0.2585420404E-02

    ------------------------------------------------
       NWT REQUIRED            4 OUTER ITERATIONS 
       AND A TOTAL OF          7 INNER ITERATIONS.
    ------------------------------------------------

 NO OUTPUT CONTROL FOR STRESS PERIOD   21   TIME STEP   28
 
 SOLVING FOR HEAD 
                                                   Max.-Head-Change                         Max.-Flux-Residual
  Residual-Control   Outer-Iter.   Inner-Iter.     Column Row Layer    Maximum-Head-Change  Column Row Layer    Maximum-Flux-Residual          L2-NORM 
          0                 1           2             4    7     1      -0.6629977593E-01       4    7    1        -0.3473528877E+01      0.8993162194E+01
          0                 2           2             4    7     1       0.6449079433E-02       4    7    1         0.3473474738E+00      0.8993097313E+00
          0                 3           2             4    7     1      -0.4391591922E-03       4    7    1        -0.2431438490E-01      0.6295160180E-01
          0                 4           1             4    7     1       0.1747455222E-04       4    7    1         0.9944595004E-03      0.2574719713E-02

    ------------------------------------------------
       NWT REQUIRED            4 OUTER ITERATIONS 
       AND A TOTAL OF          7 INNER ITERATIONS.
    ------------------------------------------------

 NO OUTPUT CONTROL FOR STRESS PERIOD   21   TIME STEP   29
 
 SOLVING FOR HEAD 
                                                   Max.-Head-Change                         Max.-Flux-Residual
  Residual-Control   Outer-Iter.   Inner-Iter.     Column Row Layer    Maximum-Head-Change  Column Row Layer    Maximum-Flux-Residual          L2-NORM 
          0                 1           2             4    7     1      -0.6575669186E-01       4    7    1        -0.3444778131E+01      0.8956389958E+01
          0                 2           2             4    7     1       0.6396253889E-02       4    7    1         0.3444725160E+00      0.8956327110E+00
          0                 3           2             4    7     1      -0.4355619512E-03       4    7    1        -0.2411313666E-01      0.6269422383E-01
          0                 4           1             4    7     1       0.1733141430E-04       4    7    1         0.9862284310E-03      0.2564190600E-02

    ------------------------------------------------
       NWT REQUIRED            4 OUTER ITERATIONS 
       AND A TOTAL OF          7 INNER ITERATIONS.
    ------------------------------------------------

 NO OUTPUT CONTROL FOR STRESS PERIOD   21   TIME STEP   30



 STREAM LISTING     PERIOD     21   STEP       30

 LAYER ROW COL. STREAM  RCH.  FLOW INTO     FLOW TO   FLOW OUT OF   OVRLND.     DIRECT     STREAM       STREAM     STREAM     STREAM   STREAMBED  STREAMBED
                SEG.NO.  NO.  STRM. RCH.    AQUIFER    STRM. RCH.    RUNOFF     PRECIP       ET          HEAD       DEPTH      WIDTH   CONDCTNC.   GRADIENT

   1    1    1     1     1    3.7001E+01  2.9351E-01   3.6707E+01  0.000E+00  0.000E+00  0.000E+00  1.09436E+03  1.308E+00  1.514E+01  6.812E-02  1.436E+00
   1    2    2     1     2    3.6707E+01  4.5449E-01   3.6253E+01  0.000E+00  0.000E+00  0.000E+00  1.08936E+03  1.305E+00  1.508E+01  1.056E-01  1.435E+00
   1    3    3     1     3    3.6253E+01  3.8754E-01   3.5865E+01  0.000E+00  0.000E+00  0.000E+00  1.08372E+03  1.302E+00  1.501E+01  9.008E-02  1.434E+00
   1    3    4     1     4    3.5865E+01  3.5682E-01   3.5508E+01  0.000E+00  0.000E+00  0.000E+00  1.07871E+03  1.299E+00  1.495E+01  8.300E-02  1.433E+00
   1    4    5     2     1    3.3508E+01  3.4594E-01   3.3162E+01  0.000E+00  0.000E+00  0.000E+00  1.07337E+03  1.435E+00  1.200E+01  7.800E-02  1.478E+00
   1    5    6     2     2    3.3162E+01  2.6563E-01   3.2897E+01  0.000E+00  0.000E+00  0.000E+00  1.06794E+03  1.427E+00  1.200E+01  6.000E-02  1.476E+00
   1    6    6     2     3    3.2897E+01  2.6522E-01   3.2631E+01  0.000E+00  0.000E+00  0.000E+00  1.06321E+03  1.420E+00  1.200E+01  6.000E-02  1.473E+00
   1    7    6     2     4    3.2631E+01  2.6480E-01   3.2367E+01  0.000E+00  0.000E+00  0.000E+00  1.05849E+03  1.413E+00  1.200E+01  6.000E-02  1.471E+00
   1    8    6     2     5    3.2367E+01  2.6439E-01   3.2102E+01  0.000E+00  0.000E+00  0.000E+00  1.05377E+03  1.406E+00  1.200E+01  6.000E-02  1.469E+00
   1    3    5     3     1    2.0000E+00  2.8252E-01   1.7175E+00  0.000E+00  0.000E+00  0.000E+00  1.07555E+03  1.909E+00  9.636E+00  7.227E-02  1.955E+00
   1    3    6     3     2    1.7175E+00  2.4905E-01   1.4684E+00  0.000E+00  0.000E+00  0.000E+00  1.07264E+03  1.727E+00  8.909E+00  6.682E-02  1.864E+00
   1    3    7     3     3    1.4684E+00  1.9718E-01   1.2712E+00  0.000E+00  0.000E+00  0.000E+00  1.06987E+03  1.555E+00  8.218E+00  5.547E-02  1.777E+00
   1    4    8     3     4    1.2712E+00  2.2567E-01   1.0456E+00  0.000E+00  0.000E+00  0.000E+00  1.06682E+03  1.364E+00  7.455E+00  6.709E-02  1.682E+00
   1    5    8     3     5    1.0456E+00  1.5790E-01   8.8768E-01  0.000E+00  0.000E+00  0.000E+00  1.06362E+03  1.164E+00  6.655E+00  4.991E-02  1.582E+00
   1    6    8     3     6    8.8768E-01  5.5980E-02   8.3170E-01  0.000E+00  0.000E+00  0.000E+00  1.06158E+03  1.036E+00  6.145E+00  1.844E-02  1.518E+00
   1    5   10     4     1    1.0000E+01  9.0919E-02   9.9091E+00  0.000E+00  0.000E+00  0.000E+00  1.07836E+03  6.368E-01  1.000E+01  2.500E-02  1.212E+00
   1    5    9     4     2    9.9091E+00  1.8158E-01   9.7275E+00  0.000E+00  0.000E+00  0.000E+00  1.07154E+03  6.315E-01  1.000E+01  5.000E-02  1.211E+00
   1    6    8     4     3    9.7275E+00  1.2689E-01   9.6006E+00  0.000E+00  0.000E+00  0.000E+00  1.06381E+03  6.256E-01  1.000E+01  3.500E-02  1.209E+00
   1    6    8     5     1    1.0432E+01  2.2686E-01   1.0205E+01  0.000E+00  0.000E+00  0.000E+00  1.05868E+03  6.790E-01  1.542E+01  6.166E-02  1.226E+00
   1    7    7     5     2    1.0205E+01  2.7894E-01   9.9265E+00  0.000E+00  0.000E+00  0.000E+00  1.05417E+03  6.732E-01  1.519E+01  7.594E-02  1.224E+00
   1    8    7     5     3    9.9265E+00  1.9221E-01   9.7343E+00  0.000E+00  0.000E+00  0.000E+00  1.04992E+03  6.676E-01  1.497E+01  5.241E-02  1.223E+00
   1    8    6     5     4    9.7343E+00  1.3577E-01   9.5985E+00  0.000E+00  0.000E+00  0.000E+00  1.04691E+03  6.637E-01  1.482E+01  3.706E-02  1.221E+00
   1    9    6     6     1    4.1701E+01  2.7939E-01   4.1421E+01  0.000E+00  0.000E+00  0.000E+00  1.04438E+03  1.656E+00  1.200E+01  6.000E-02  1.552E+00
   1   10    7     6     2    4.1421E+01  2.7899E-01   4.1142E+01  0.000E+00  0.000E+00  0.000E+00  1.03983E+03  1.650E+00  1.200E+01  6.000E-02  1.550E+00
   1   11    7     6     3    4.1142E+01  2.7859E-01   4.0864E+01  0.000E+00  0.000E+00  0.000E+00  1.03528E+03  1.643E+00  1.200E+01  6.000E-02  1.548E+00
   1   12    7     6     4    4.0864E+01  2.7818E-01   4.0586E+01  0.000E+00  0.000E+00  0.000E+00  1.03073E+03  1.636E+00  1.200E+01  6.000E-02  1.545E+00
   1   13    7     6     5    4.0586E+01  1.1336E-02   4.0574E+01  0.000E+00  0.000E+00  0.000E+00  1.02754E+03  1.633E+00  1.200E+01  2.400E-02  1.574E-01
   1   14    9     7     1    1.5000E+02  1.3332E+00   1.4867E+02  0.000E+00  0.000E+00  0.000E+00  1.03987E+03  2.288E+00  5.529E+01  5.593E-01  7.946E-01
   1   13    8     7     2    1.4867E+02  1.8329E+00   1.4683E+02  0.000E+00  0.000E+00  0.000E+00  1.03478E+03  2.279E+00  5.526E+01  6.148E-01  9.938E-01
   1   13    7     7     3    1.4683E+02  1.4633E+00   1.4537E+02  0.000E+00  0.000E+00  0.000E+00  1.02969E+03  2.271E+00  5.522E+01  5.585E-01  8.734E-01
   1   13    6     8     1    1.8594E+02  9.7823E-01   1.8497E+02  0.000E+00  0.000E+00  0.000E+00  1.02493E+03  3.050E+00  4.423E+01  4.507E-01  7.235E-01
   1   13    5     8     2    1.8497E+02  2.0751E-01   1.8476E+02  0.000E+00  0.000E+00  0.000E+00  1.01867E+03  3.046E+00  4.417E+01  4.501E-01  1.537E-01
   1   13    4     8     3    1.8476E+02 -2.3621E+00   1.8712E+02  0.000E+00  0.000E+00  0.000E+00  1.01243E+03  3.053E+00  4.427E+01  4.511E+00 -1.745E-01
   1   13    3     8     4    1.8712E+02 -3.6232E+00   1.9074E+02  0.000E+00  0.000E+00  0.000E+00  1.00620E+03  3.071E+00  4.454E+01  4.538E+00 -2.661E-01
   1   13    2     8     5    1.9074E+02 -2.5897E+00   1.9333E+02  0.000E+00  0.000E+00  0.000E+00  9.99965E+02  3.090E+00  4.481E+01  4.566E+00 -1.890E-01
   1   13    1     8     6    1.9333E+02 -2.0214E+00   1.9536E+02  0.000E+00  0.000E+00  0.000E+00  9.94979E+02  3.104E+00  4.501E+01  2.752E+00 -2.448E-01





UNSATURATED ZONE PACKAGE VOLUMETRIC BUDGET FOR  TIME STEP    30 STRESS PERIOD   21
  ------------------------------------------------------------------------------



     CUMULATIVE VOLUMES      L**3       RATES FOR THIS TIME STEP      L**3/T
     ------------------                 ------------------------

           IN:                                      IN:
           ---                                      ---
        INFILTRATION =   999210648.1218          INFILTRATION =          52.8236

          OUT:                                     OUT:
          ----                                     ----
              UZF ET =   944332109.5409                UZF ET =          52.8575
        UZF RECHARGE =      797698.7981          UZF RECHARGE =       0.0000E+00

            IN - OUT =    54080839.7829              IN - OUT =      -3.3876E-02

          STORAGE:                                 STORAGE:
          --------                                 --------
      STORAGE CHANGE =    54081779.3850        STORAGE CHANGE =      -3.3876E-02

 PERCENT DISCREPANCY IS DIFFERENCE BETWEEN IN-OUT MINUS CHANGE IN STORAGE
 DIVIDED BY THE AVERAGE OF IN AND OUT TIMES 100

 PERCENT DISCREPANCY =          -0.00     PERCENT DISCREPANCY =           0.00






1
  VOLUMETRIC BUDGET FOR AGRICULTURAL FIELDS AT TIME STEP   30, STRESS PERIOD  21
  ------------------------------------------------------------------------------

     CUMULATIVE VOLUMES      L**3       RATES FOR THIS TIME STEP      L**3/T
     ------------------                 ------------------------

           IN:                                      IN:
           ---                                      ---
               AG WELLS  =   767302464.0000                 AG WELLS  =          48.4161
      DIVERSION SEGMENTS =           0.0000        DIVERSION SEGMENTS =           0.0000
           GW IRRIGATION =           0.0000             GW IRRIGATION =           0.0000
           SW IRRIGATION =           0.0000             SW IRRIGATION =           0.0000
        SYSTEM LOSSES GW =           0.0000          SYSTEM LOSSES GW =           0.0000
        SYSTEM LOSSES SW =           0.0000          SYSTEM LOSSES SW =           0.0000

                TOTAL IN =   767302464.0000                  TOTAL IN =          48.4161

          OUT:                                     OUT:
          ----                                     ----
               AG WELLS  =           0.0000                 AG WELLS  =           0.0000
      DIVERSION SEGMENTS =           0.0000        DIVERSION SEGMENTS =           0.0000
           GW IRRIGATION =   767302464.0000             GW IRRIGATION =          48.4161
           SW IRRIGATION =           0.0000             SW IRRIGATION =           0.0000
        SYSTEM LOSSES GW =           0.0000          SYSTEM LOSSES GW =           0.0000
        SYSTEM LOSSES SW =           0.0000          SYSTEM LOSSES SW =           0.0000

               TOTAL OUT =   767302464.0000                 TOTAL OUT =          48.4161

                IN - OUT =           0.0000                  IN - OUT =           0.0000

     PERCENT DISCREPANCY =           0.00         PERCENT DISCREPANCY =           0.00



1
  VOLUMETRIC BUDGET FOR ENTIRE MODEL AT END OF TIME STEP   30, STRESS PERIOD  21
  ------------------------------------------------------------------------------

     CUMULATIVE VOLUMES      L**3       RATES FOR THIS TIME STEP      L**3/T
     ------------------                 ------------------------

           IN:                                      IN:
           ---                                      ---
             STORAGE     =   922672448.0000               STORAGE     =          47.0130
       CONSTANT HEAD     =           0.0000         CONSTANT HEAD     =           0.0000
     HEAD DEP BOUNDS     =    15037898.0000       HEAD DEP BOUNDS     =           0.2856
      STREAM LEAKAGE     =   661569216.0000        STREAM LEAKAGE     =          12.2414
        UZF RECHARGE     =      797698.6250          UZF RECHARGE     =           0.0000
               GW ET     =           0.0000                 GW ET     =           0.0000
     SURFACE LEAKAGE     =           0.0000       SURFACE LEAKAGE     =           0.0000
           AG WELLS      =           0.0000             AG WELLS      =           0.0000

                TOTAL IN =  1600077312.0000                  TOTAL IN =          59.5399

          OUT:                                     OUT:
          ----                                     ----
             STORAGE     =   254782496.0000               STORAGE     =           0.2345
       CONSTANT HEAD     =           0.0000         CONSTANT HEAD     =           0.0000
     HEAD DEP BOUNDS     =    15529652.0000       HEAD DEP BOUNDS     =           0.2931
      STREAM LEAKAGE     =   545120576.0000        STREAM LEAKAGE     =          10.5964
        UZF RECHARGE     =           0.0000          UZF RECHARGE     =           0.0000
               GW ET     =    17343536.0000                 GW ET     =           0.0000
     SURFACE LEAKAGE     =           0.0000       SURFACE LEAKAGE     =           0.0000
           AG WELLS      =   767302464.0000             AG WELLS      =          48.4161

               TOTAL OUT =  1600078720.0000                 TOTAL OUT =          59.5401

                IN - OUT =       -1408.0000                  IN - OUT =      -1.6403E-04

     PERCENT DISCREPANCY =          -0.00         PERCENT DISCREPANCY =          -0.00






         TIME SUMMARY AT END OF TIME STEP   30 IN STRESS PERIOD   21
                    SECONDS     MINUTES      HOURS       DAYS        YEARS
                    -----------------------------------------------------------
   TIME STEP LENGTH  87667.      1461.1      24.352      1.0147     2.77799E-03
 STRESS PERIOD TIME 2.63000E+06  43833.      730.56      30.440     8.33397E-02
         TOTAL TIME 5.26866E+07 8.78110E+05  14635.      609.80      1.6695    
1
1
                            STRESS PERIOD NO.   22, LENGTH =   2630000.    
                            -----------------------------------------------

                              NUMBER OF TIME STEPS =    30

                               MULTIPLIER FOR DELT =     1.000

                            INITIAL TIME STEP SIZE =   87666.66    

 REUSING NON-PARAMETER GHB CELLS FROM LAST STRESS PERIOD

      2 GHB CELLS

 REUSING STREAM SEGMENT DATA FROM LAST STRESS PERIOD



            AREAL INFILTRATION RATE
 READING ON UNIT   19 WITH FORMAT: (10F4.0)            

            1           2           3           4           5           6           7           8           9          10
 ........................................................................................................................
   1   1.2000E-09   0.000       0.000       0.000       0.000       0.000       0.000       0.000       0.000       0.000    
   2   2.1000E-09  2.0000E-09  8.0000E-10  8.5000E-09   0.000       0.000       0.000       0.000       0.000       0.000    
   3   5.0000E-10  1.1000E-09  8.8000E-09  5.5000E-09   0.000       0.000       0.000       0.000       0.000       0.000    
   4   8.5000E-09  1.1000E-09  1.1000E-09  1.1000E-09  2.0000E-09   0.000       0.000       0.000       0.000       0.000    
   5   8.5000E-09  1.1000E-09  1.1000E-09  1.1000E-09  1.1000E-09   0.000       0.000       0.000       0.000       0.000    
   6   8.5000E-09  5.2000E-09  2.1000E-09  1.1000E-09  1.5000E-09   0.000       0.000       0.000       0.000       0.000    
   7   8.5000E-09  5.2000E-09  2.1000E-09  1.2000E-09  2.0000E-09   0.000       0.000       0.000       0.000       0.000    
   8   5.0000E-10  5.2000E-09  2.1000E-09  1.2000E-09  5.0000E-09   0.000       0.000       0.000       0.000       0.000    
   9   5.0000E-10  5.2000E-09  2.1000E-09  1.2000E-09  5.0000E-09   0.000       0.000       0.000       0.000       0.000    
  10   5.0000E-10  5.2000E-09  2.1000E-09  1.2000E-09  5.8000E-09   0.000       0.000       0.000       0.000       0.000    
  11   1.0000E-10  1.1000E-09  1.1000E-09  1.2000E-09  5.0000E-09   0.000       0.000       0.000       0.000       0.000    
  12   1.1000E-09  1.1000E-09  1.1000E-09  1.1000E-09  2.0000E-09   0.000       0.000       0.000       0.000       0.000    
  13   1.1000E-09  2.2000E-09  2.2000E-09  2.1000E-09  1.0000E-09   0.000       0.000       0.000       0.000       0.000    
  14   2.0000E-10  5.5000E-09  5.5000E-09  5.2000E-09  1.0000E-09   0.000       0.000       0.000       0.000       0.000    
  15    0.000      8.8000E-09  8.8000E-09   0.000       0.000       0.000       0.000       0.000       0.000       0.000    

                  ET RATE =  7.500000E-08

 USING ET EXTINCTION DEPTH FROM PREVIOUS STRESS PERIOD. CURRENT PERIOD IS:      22

 USING EXTINCTION WATER CONTENT FROM PREVIOUS STRESS PERIOD. CURRENT PERIOD IS:      22

 USING AIR ENTRY PRESSURE FROM PREVIOUS STRESS PERIOD. CURRENT PERIOD IS:      22

 USING ROOT PRESSURE HEAD FROM PREVIOUS STRESS PERIOD. CURRENT PERIOD IS:      22

 USING ROOT ACTIVITY FROM PREVIOUS STRESS PERIOD. CURRENT PERIOD IS:      22

 PROCESSING AG STRESS PERIOD DATA

 READING AG STRESS PERIOD DATA

 READING IRRIGATION WELL

 END PROCESSING AG STRESS PERIOD DATA OPTIONS
 
 SOLVING FOR HEAD 
                                                   Max.-Head-Change                         Max.-Flux-Residual
  Residual-Control   Outer-Iter.   Inner-Iter.     Column Row Layer    Maximum-Head-Change  Column Row Layer    Maximum-Flux-Residual          L2-NORM 
          0                 1           2             5    8     1       0.6997641184E-01       5    8    1         0.3810483845E+01      0.1010465980E+02
          0                 2           2             5    8     1      -0.6806682900E-02       5    8    1        -0.3810404735E+00      0.1010389939E+01
          0                 3           2             5    8     1       0.4635088993E-03       5    8    1         0.2667280144E-01      0.7072249371E-01
          0                 4           1             5    8     1      -0.1844549695E-04       5    8    1        -0.1091037948E-02      0.2892453542E-02

    ------------------------------------------------
       NWT REQUIRED            4 OUTER ITERATIONS 
       AND A TOTAL OF          7 INNER ITERATIONS.
    ------------------------------------------------

 NO OUTPUT CONTROL FOR STRESS PERIOD   22   TIME STEP    1
 
 SOLVING FOR HEAD 
                                                   Max.-Head-Change                         Max.-Flux-Residual
  Residual-Control   Outer-Iter.   Inner-Iter.     Column Row Layer    Maximum-Head-Change  Column Row Layer    Maximum-Flux-Residual          L2-NORM 
          0                 1           2             5    8     1       0.6681762530E-01       5    8    1         0.3635568151E+01      0.9788271357E+01
          0                 2           2             5    8     1      -0.6499426662E-02       5    8    1        -0.3635494283E+00      0.9787429177E+00
          0                 3           2             5    8     1       0.4425858146E-03       5    8    1         0.2544842278E-01      0.6850616625E-01
          0                 4           1             5    8     1      -0.1761294814E-04       5    8    1        -0.1040960811E-02      0.2801828104E-02

    ------------------------------------------------
       NWT REQUIRED            4 OUTER ITERATIONS 
       AND A TOTAL OF          7 INNER ITERATIONS.
    ------------------------------------------------

 NO OUTPUT CONTROL FOR STRESS PERIOD   22   TIME STEP    2
 
 SOLVING FOR HEAD 
                                                   Max.-Head-Change                         Max.-Flux-Residual
  Residual-Control   Outer-Iter.   Inner-Iter.     Column Row Layer    Maximum-Head-Change  Column Row Layer    Maximum-Flux-Residual          L2-NORM 
          0                 1           2             5    8     1       0.6385351311E-01       5    8    1         0.3471507687E+01      0.9482647311E+01
          0                 2           2             5    8     1      -0.6211106582E-02       5    8    1        -0.3471438819E+00      0.9481894406E+00
          0                 3           2             5    8     1       0.4229522155E-03       5    8    1         0.2430002930E-01      0.6636807650E-01
          0                 4           1             5    8     1      -0.1683170940E-04       5    8    1        -0.9939914848E-03      0.2714361244E-02

    ------------------------------------------------
       NWT REQUIRED            4 OUTER ITERATIONS 
       AND A TOTAL OF          7 INNER ITERATIONS.
    ------------------------------------------------

 NO OUTPUT CONTROL FOR STRESS PERIOD   22   TIME STEP    3
 
 SOLVING FOR HEAD 
                                                   Max.-Head-Change                         Max.-Flux-Residual
  Residual-Control   Outer-Iter.   Inner-Iter.     Column Row Layer    Maximum-Head-Change  Column Row Layer    Maximum-Flux-Residual          L2-NORM 
          0                 1           2             5    6     1       0.6112416624E-01       5    8    1         0.3317553710E+01      0.9193476016E+01
          0                 2           2             5    6     1      -0.5945617143E-02       5    8    1        -0.3317489468E+00      0.9192801968E+00
          0                 3           2             5    6     1       0.4048733503E-03       5    8    1         0.2322237903E-01      0.6434497222E-01
          0                 4           1             5    6     1      -0.1611230247E-04       5    8    1        -0.9499155587E-03      0.2631682876E-02

    ------------------------------------------------
       NWT REQUIRED            4 OUTER ITERATIONS 
       AND A TOTAL OF          7 INNER ITERATIONS.
    ------------------------------------------------

 NO OUTPUT CONTROL FOR STRESS PERIOD   22   TIME STEP    4
 
 SOLVING FOR HEAD 
                                                   Max.-Head-Change                         Max.-Flux-Residual
  Residual-Control   Outer-Iter.   Inner-Iter.     Column Row Layer    Maximum-Head-Change  Column Row Layer    Maximum-Flux-Residual          L2-NORM 
          0                 1           2             5    6     1       0.5862105267E-01       5    6    1         0.3176459135E+01      0.8919566980E+01
          0                 2           2             5    6     1      -0.5702139240E-02       5    6    1        -0.3176396168E+00      0.8918963708E+00
          0                 3           2             5    6     1       0.3882933415E-03       5    6    1         0.2223472428E-01      0.6242857506E-01
          0                 4           1             5    6     1      -0.1545256962E-04       5    6    1        -0.9095204200E-03      0.2553319533E-02

    ------------------------------------------------
       NWT REQUIRED            4 OUTER ITERATIONS 
       AND A TOTAL OF          7 INNER ITERATIONS.
    ------------------------------------------------

 NO OUTPUT CONTROL FOR STRESS PERIOD   22   TIME STEP    5
 
 SOLVING FOR HEAD 
                                                   Max.-Head-Change                         Max.-Flux-Residual
  Residual-Control   Outer-Iter.   Inner-Iter.     Column Row Layer    Maximum-Head-Change  Column Row Layer    Maximum-Flux-Residual          L2-NORM 
          0                 1           2             5    7     1       0.5648019274E-01       5    6    1         0.3046375799E+01      0.8659820897E+01
          0                 2           2             5    7     1      -0.5493937125E-02       5    6    1        -0.3046317162E+00      0.8659280121E+00
          0                 3           2             5    7     1       0.3741150783E-03       5    6    1         0.2132416674E-01      0.6061125028E-01
          0                 4           1             5    7     1      -0.1488846983E-04       5    6    1        -0.8722785869E-03      0.2479028294E-02

    ------------------------------------------------
       NWT REQUIRED            4 OUTER ITERATIONS 
       AND A TOTAL OF          7 INNER ITERATIONS.
    ------------------------------------------------

 NO OUTPUT CONTROL FOR STRESS PERIOD   22   TIME STEP    6
 
 SOLVING FOR HEAD 
                                                   Max.-Head-Change                         Max.-Flux-Residual
  Residual-Control   Outer-Iter.   Inner-Iter.     Column Row Layer    Maximum-Head-Change  Column Row Layer    Maximum-Flux-Residual          L2-NORM 
          0                 1           2             5    7     1       0.5520053438E-01       5    7    1         0.2934908695E+01      0.8413238015E+01
          0                 2           2             5    7     1      -0.5369467713E-02       5    7    1        -0.2934882510E+00      0.8412753101E+00
          0                 3           2             5    7     1       0.3656391095E-03       5    7    1         0.2054409313E-01      0.5888591110E-01
          0                 4           1             5    7     1      -0.1455120318E-04       5    7    1        -0.8403736560E-03      0.2408504512E-02

    ------------------------------------------------
       NWT REQUIRED            4 OUTER ITERATIONS 
       AND A TOTAL OF          7 INNER ITERATIONS.
    ------------------------------------------------

 NO OUTPUT CONTROL FOR STRESS PERIOD   22   TIME STEP    7
 
 SOLVING FOR HEAD 
                                                   Max.-Head-Change                         Max.-Flux-Residual
  Residual-Control   Outer-Iter.   Inner-Iter.     Column Row Layer    Maximum-Head-Change  Column Row Layer    Maximum-Flux-Residual          L2-NORM 
          0                 1           2             5    7     1       0.5394645597E-01       5    7    1         0.2868437756E+01      0.8178908442E+01
          0                 2           2             5    7     1      -0.5247485729E-02       5    7    1        -0.2868415387E+00      0.8178473386E+00
          0                 3           2             5    7     1       0.3573325338E-03       5    7    1         0.2007881946E-01      0.5724628610E-01
          0                 4           1             5    7     1      -0.1422067736E-04       5    7    1        -0.8213439746E-03      0.2341408215E-02

    ------------------------------------------------
       NWT REQUIRED            4 OUTER ITERATIONS 
       AND A TOTAL OF          7 INNER ITERATIONS.
    ------------------------------------------------

 NO OUTPUT CONTROL FOR STRESS PERIOD   22   TIME STEP    8
 
 SOLVING FOR HEAD 
                                                   Max.-Head-Change                         Max.-Flux-Residual
  Residual-Control   Outer-Iter.   Inner-Iter.     Column Row Layer    Maximum-Head-Change  Column Row Layer    Maximum-Flux-Residual          L2-NORM 
          0                 1           2             5    7     1       0.5271824417E-01       5    7    1         0.2803274690E+01      0.7955982264E+01
          0                 2           2             5    7     1      -0.5128019160E-02       5    7    1        -0.2803255660E+00      0.7955591503E+00
          0                 3           2             5    7     1       0.3491972546E-03       5    7    1         0.1962269802E-01      0.5568638954E-01
          0                 4           1             5    7     1      -0.1389696687E-04       5    7    1        -0.8026885778E-03      0.2277648332E-02

    ------------------------------------------------
       NWT REQUIRED            4 OUTER ITERATIONS 
       AND A TOTAL OF          7 INNER ITERATIONS.
    ------------------------------------------------

 NO OUTPUT CONTROL FOR STRESS PERIOD   22   TIME STEP    9
 
 SOLVING FOR HEAD 
                                                   Max.-Head-Change                         Max.-Flux-Residual
  Residual-Control   Outer-Iter.   Inner-Iter.     Column Row Layer    Maximum-Head-Change  Column Row Layer    Maximum-Flux-Residual          L2-NORM 
          0                 1           2             4    7     1       0.5201304614E-01       5    7    1         0.2739467390E+01      0.7743690305E+01
          0                 2           2             4    7     1      -0.5059444499E-02       5    7    1        -0.2739451282E+00      0.7743327110E+00
          0                 3           2             4    7     1       0.3445273388E-03       5    7    1         0.1917606442E-01      0.5420077997E-01
          0                 4           1             4    7     1      -0.1371116681E-04       5    7    1        -0.7844212637E-03      0.2216893945E-02

    ------------------------------------------------
       NWT REQUIRED            4 OUTER ITERATIONS 
       AND A TOTAL OF          7 INNER ITERATIONS.
    ------------------------------------------------

 NO OUTPUT CONTROL FOR STRESS PERIOD   22   TIME STEP   10
 
 SOLVING FOR HEAD 
                                                   Max.-Head-Change                         Max.-Flux-Residual
  Residual-Control   Outer-Iter.   Inner-Iter.     Column Row Layer    Maximum-Head-Change  Column Row Layer    Maximum-Flux-Residual          L2-NORM 
          0                 1           2             4    7     1       0.5155497001E-01       4    7    1         0.2702374428E+01      0.7541322498E+01
          0                 2           2             4    7     1      -0.5014890306E-02       4    7    1        -0.2702373381E+00      0.7541005695E+00
          0                 3           2             4    7     1       0.3414933233E-03       4    7    1         0.1891650477E-01      0.5278475511E-01
          0                 4           1             4    7     1      -0.1359044067E-04       4    7    1        -0.7738053134E-03      0.2159014886E-02

    ------------------------------------------------
       NWT REQUIRED            4 OUTER ITERATIONS 
       AND A TOTAL OF          7 INNER ITERATIONS.
    ------------------------------------------------

 NO OUTPUT CONTROL FOR STRESS PERIOD   22   TIME STEP   11
 
 SOLVING FOR HEAD 
                                                   Max.-Head-Change                         Max.-Flux-Residual
  Residual-Control   Outer-Iter.   Inner-Iter.     Column Row Layer    Maximum-Head-Change  Column Row Layer    Maximum-Flux-Residual          L2-NORM 
          0                 1           2             4    7     1       0.5107182302E-01       4    7    1         0.2678575932E+01      0.7348225910E+01
          0                 2           2             4    7     1      -0.4967896939E-02       4    7    1        -0.2678577302E+00      0.7347943924E+00
          0                 3           2             4    7     1       0.3382932130E-03       4    7    1         0.1874992983E-01      0.5143379903E-01
          0                 4           1             4    7     1      -0.1346310551E-04       4    7    1        -0.7669923984E-03      0.2103749641E-02

    ------------------------------------------------
       NWT REQUIRED            4 OUTER ITERATIONS 
       AND A TOTAL OF          7 INNER ITERATIONS.
    ------------------------------------------------

 NO OUTPUT CONTROL FOR STRESS PERIOD   22   TIME STEP   12
 
 SOLVING FOR HEAD 
                                                   Max.-Head-Change                         Max.-Flux-Residual
  Residual-Control   Outer-Iter.   Inner-Iter.     Column Row Layer    Maximum-Head-Change  Column Row Layer    Maximum-Flux-Residual          L2-NORM 
          0                 1           2             4    7     1       0.5056605363E-01       4    7    1         0.2653470409E+01      0.7163800971E+01
          0                 2           2             4    7     1      -0.4918702607E-02       4    7    1        -0.2653473915E+00      0.7163543613E+00
          0                 3           2             4    7     1       0.3349432298E-03       4    7    1         0.1857420403E-01      0.5014292442E-01
          0                 4           1             4    7     1      -0.1332980686E-04       4    7    1        -0.7598052239E-03      0.2050992499E-02

    ------------------------------------------------
       NWT REQUIRED            4 OUTER ITERATIONS 
       AND A TOTAL OF          7 INNER ITERATIONS.
    ------------------------------------------------

 NO OUTPUT CONTROL FOR STRESS PERIOD   22   TIME STEP   13
 
 SOLVING FOR HEAD 
                                                   Max.-Head-Change                         Max.-Flux-Residual
  Residual-Control   Outer-Iter.   Inner-Iter.     Column Row Layer    Maximum-Head-Change  Column Row Layer    Maximum-Flux-Residual          L2-NORM 
          0                 1           2             4    7     1       0.5004034844E-01       4    7    1         0.2627206072E+01      0.6987494863E+01
          0                 2           2             4    7     1      -0.4867568684E-02       4    7    1        -0.2627211463E+00      0.6987262409E+00
          0                 3           2             4    7     1       0.3314611715E-03       4    7    1         0.1839036500E-01      0.4890913291E-01
          0                 4           1             4    7     1      -0.1319125264E-04       4    7    1        -0.7522862124E-03      0.2000541311E-02

    ------------------------------------------------
       NWT REQUIRED            4 OUTER ITERATIONS 
       AND A TOTAL OF          7 INNER ITERATIONS.
    ------------------------------------------------

 NO OUTPUT CONTROL FOR STRESS PERIOD   22   TIME STEP   14
 
 SOLVING FOR HEAD 
                                                   Max.-Head-Change                         Max.-Flux-Residual
  Residual-Control   Outer-Iter.   Inner-Iter.     Column Row Layer    Maximum-Head-Change  Column Row Layer    Maximum-Flux-Residual          L2-NORM 
          0                 1           2             4    7     1       0.4949656230E-01       4    7    1         0.2599886335E+01      0.6818783956E+01
          0                 2           2             4    7     1      -0.4814675629E-02       4    7    1        -0.2599893379E+00      0.6818573888E+00
          0                 3           2             4    7     1       0.3278593257E-03       4    7    1         0.1819913676E-01      0.4772844588E-01
          0                 4           1             4    7     1      -0.1304793202E-04       4    7    1        -0.7444649568E-03      0.1952269611E-02

    ------------------------------------------------
       NWT REQUIRED            4 OUTER ITERATIONS 
       AND A TOTAL OF          7 INNER ITERATIONS.
    ------------------------------------------------

 NO OUTPUT CONTROL FOR STRESS PERIOD   22   TIME STEP   15
 
 SOLVING FOR HEAD 
                                                   Max.-Head-Change                         Max.-Flux-Residual
  Residual-Control   Outer-Iter.   Inner-Iter.     Column Row Layer    Maximum-Head-Change  Column Row Layer    Maximum-Flux-Residual          L2-NORM 
          0                 1           2             4    7     1       0.4893695371E-01       4    7    1         0.2571636242E+01      0.6657205615E+01
          0                 2           2             4    7     1      -0.4760243167E-02       4    7    1        -0.2571644730E+00      0.6657014879E+00
          0                 3           2             4    7     1       0.3241526553E-03       4    7    1         0.1800139476E-01      0.4659765283E-01
          0                 4           1             4    7     1      -0.1290043963E-04       4    7    1        -0.7363773041E-03      0.1906048363E-02

    ------------------------------------------------
       NWT REQUIRED            4 OUTER ITERATIONS 
       AND A TOTAL OF          7 INNER ITERATIONS.
    ------------------------------------------------

 NO OUTPUT CONTROL FOR STRESS PERIOD   22   TIME STEP   16
 
 SOLVING FOR HEAD 
                                                   Max.-Head-Change                         Max.-Flux-Residual
  Residual-Control   Outer-Iter.   Inner-Iter.     Column Row Layer    Maximum-Head-Change  Column Row Layer    Maximum-Flux-Residual          L2-NORM 
          0                 1           2             4    7     1       0.4836350286E-01       4    7    1         0.2542565763E+01      0.6502328424E+01
          0                 2           2             4    7     1      -0.4704463947E-02       4    7    1        -0.2542575507E+00      0.6502156020E+00
          0                 3           2             4    7     1       0.3203542790E-03       4    7    1         0.1779790895E-01      0.4551376288E-01
          0                 4           1             4    7     1      -0.1274929931E-04       4    7    1        -0.7280547345E-03      0.1861700550E-02

    ------------------------------------------------
       NWT REQUIRED            4 OUTER ITERATIONS 
       AND A TOTAL OF          7 INNER ITERATIONS.
    ------------------------------------------------

 NO OUTPUT CONTROL FOR STRESS PERIOD   22   TIME STEP   17
 
 SOLVING FOR HEAD 
                                                   Max.-Head-Change                         Max.-Flux-Residual
  Residual-Control   Outer-Iter.   Inner-Iter.     Column Row Layer    Maximum-Head-Change  Column Row Layer    Maximum-Flux-Residual          L2-NORM 
          0                 1           2             4    7     1       0.4777791803E-01       4    7    1         0.2512770199E+01      0.6353737487E+01
          0                 2           2             4    7     1      -0.4647504165E-02       4    7    1        -0.2512781027E+00      0.6353580439E+00
          0                 3           2             4    7     1       0.3164755128E-03       4    7    1         0.1758934646E-01      0.4447385718E-01
          0                 4           1             4    7     1      -0.1259495994E-04       4    7    1        -0.7195245325E-03      0.1819206541E-02

    ------------------------------------------------
       NWT REQUIRED            4 OUTER ITERATIONS 
       AND A TOTAL OF          7 INNER ITERATIONS.
    ------------------------------------------------

 NO OUTPUT CONTROL FOR STRESS PERIOD   22   TIME STEP   18
 
 SOLVING FOR HEAD 
                                                   Max.-Head-Change                         Max.-Flux-Residual
  Residual-Control   Outer-Iter.   Inner-Iter.     Column Row Layer    Maximum-Head-Change  Column Row Layer    Maximum-Flux-Residual          L2-NORM 
          0                 1           2             4    7     1       0.4718205865E-01       4    7    1         0.2482352503E+01      0.6211079259E+01
          0                 2           2             4    7     1      -0.4589544718E-02       4    7    1        -0.2482364262E+00      0.6210936811E+00
          0                 3           2             4    7     1       0.3125286755E-03       4    7    1         0.1737642814E-01      0.4347538869E-01
          0                 4           1             4    7     1      -0.1243791139E-04       4    7    1        -0.7108161583E-03      0.1778303754E-02

    ------------------------------------------------
       NWT REQUIRED            4 OUTER ITERATIONS 
       AND A TOTAL OF          7 INNER ITERATIONS.
    ------------------------------------------------

 NO OUTPUT CONTROL FOR STRESS PERIOD   22   TIME STEP   19
 
 SOLVING FOR HEAD 
                                                   Max.-Head-Change                         Max.-Flux-Residual
  Residual-Control   Outer-Iter.   Inner-Iter.     Column Row Layer    Maximum-Head-Change  Column Row Layer    Maximum-Flux-Residual          L2-NORM 
          0                 1           2             4    7     1       0.4657739066E-01       4    7    1         0.2451394819E+01      0.6073997914E+01
          0                 2           2             4    7     1      -0.4530728223E-02       4    7    1        -0.2451407370E+00      0.6073868249E+00
          0                 3           2             4    7     1       0.3085234787E-03       4    7    1         0.1715972905E-01      0.4251602851E-01
          0                 4           1             4    7     1      -0.1227854117E-04       4    7    1        -0.7019531802E-03      0.1739101550E-02

    ------------------------------------------------
       NWT REQUIRED            4 OUTER ITERATIONS 
       AND A TOTAL OF          7 INNER ITERATIONS.
    ------------------------------------------------

 NO OUTPUT CONTROL FOR STRESS PERIOD   22   TIME STEP   20
 
 SOLVING FOR HEAD 
                                                   Max.-Head-Change                         Max.-Flux-Residual
  Residual-Control   Outer-Iter.   Inner-Iter.     Column Row Layer    Maximum-Head-Change  Column Row Layer    Maximum-Flux-Residual          L2-NORM 
          0                 1           2             4    7     1       0.4596540336E-01       4    7    1         0.2419980406E+01      0.5942167848E+01
          0                 2           2             4    7     1      -0.4471199572E-02       4    7    1        -0.2419993624E+00      0.5942049274E+00
          0                 3           2             4    7     1       0.3044697880E-03       4    7    1         0.1693983211E-01      0.4159333183E-01
          0                 4           1             4    7     1      -0.1211724061E-04       4    7    1        -0.6929593603E-03      0.1701379368E-02

    ------------------------------------------------
       NWT REQUIRED            4 OUTER ITERATIONS 
       AND A TOTAL OF          7 INNER ITERATIONS.
    ------------------------------------------------

 NO OUTPUT CONTROL FOR STRESS PERIOD   22   TIME STEP   21
 
 SOLVING FOR HEAD 
                                                   Max.-Head-Change                         Max.-Flux-Residual
  Residual-Control   Outer-Iter.   Inner-Iter.     Column Row Layer    Maximum-Head-Change  Column Row Layer    Maximum-Flux-Residual          L2-NORM 
          0                 1           2             4    7     1       0.4534734951E-01       4    7    1         0.2388179108E+01      0.5815299546E+01
          0                 2           2             4    7     1      -0.4411080642E-02       4    7    1        -0.2388192880E+00      0.5815191185E+00
          0                 3           2             4    7     1       0.3003759031E-03       4    7    1         0.1671722627E-01      0.4070539083E-01
          0                 4           1             4    7     1      -0.1195434127E-04       4    7    1        -0.6838547679E-03      0.1665059058E-02

    ------------------------------------------------
       NWT REQUIRED            4 OUTER ITERATIONS 
       AND A TOTAL OF          7 INNER ITERATIONS.
    ------------------------------------------------

 NO OUTPUT CONTROL FOR STRESS PERIOD   22   TIME STEP   22
 
 SOLVING FOR HEAD 
                                                   Max.-Head-Change                         Max.-Flux-Residual
  Residual-Control   Outer-Iter.   Inner-Iter.     Column Row Layer    Maximum-Head-Change  Column Row Layer    Maximum-Flux-Residual          L2-NORM 
          0                 1           2             4    7     1       0.4472478167E-01       4    7    1         0.2356077761E+01      0.5693120977E+01
          0                 2           2             4    7     1      -0.4350522472E-02       4    7    1        -0.2356091987E+00      0.5693021767E+00
          0                 3           2             4    7     1       0.2962521093E-03       4    7    1         0.1649251949E-01      0.3985027834E-01
          0                 4           1             4    7     1      -0.1179025175E-04       4    7    1        -0.6746642500E-03      0.1630075432E-02

    ------------------------------------------------
       NWT REQUIRED            4 OUTER ITERATIONS 
       AND A TOTAL OF          7 INNER ITERATIONS.
    ------------------------------------------------

 NO OUTPUT CONTROL FOR STRESS PERIOD   22   TIME STEP   23
 
 SOLVING FOR HEAD 
                                                   Max.-Head-Change                         Max.-Flux-Residual
  Residual-Control   Outer-Iter.   Inner-Iter.     Column Row Layer    Maximum-Head-Change  Column Row Layer    Maximum-Flux-Residual          L2-NORM 
          0                 1           2             4    7     1       0.4409860863E-01       4    7    1         0.2323727608E+01      0.5575370228E+01
          0                 2           2             4    7     1      -0.4289613477E-02       4    7    1        -0.2323742196E+00      0.5575279371E+00
          0                 3           2             4    7     1       0.2921044268E-03       4    7    1         0.1626607051E-01      0.3902613531E-01
          0                 4           1             4    7     1      -0.1162521150E-04       4    7    1        -0.6654024701E-03      0.1596380600E-02

    ------------------------------------------------
       NWT REQUIRED            4 OUTER ITERATIONS 
       AND A TOTAL OF          7 INNER ITERATIONS.
    ------------------------------------------------

 NO OUTPUT CONTROL FOR STRESS PERIOD   22   TIME STEP   24
 
 SOLVING FOR HEAD 
                                                   Max.-Head-Change                         Max.-Flux-Residual
  Residual-Control   Outer-Iter.   Inner-Iter.     Column Row Layer    Maximum-Head-Change  Column Row Layer    Maximum-Flux-Residual          L2-NORM 
          0                 1           2             4    7     1       0.4347006927E-01       4    7    1         0.2291197770E+01      0.5461817693E+01
          0                 2           2             4    7     1      -0.4228474184E-02       4    7    1        -0.2291212640E+00      0.5461734305E+00
          0                 3           2             4    7     1       0.2879410633E-03       4    7    1         0.1603836326E-01      0.3823135612E-01
          0                 4           1             4    7     1      -0.1145954725E-04       4    7    1        -0.6560892314E-03      0.1563856558E-02

    ------------------------------------------------
       NWT REQUIRED            4 OUTER ITERATIONS 
       AND A TOTAL OF          7 INNER ITERATIONS.
    ------------------------------------------------

 NO OUTPUT CONTROL FOR STRESS PERIOD   22   TIME STEP   25
 
 SOLVING FOR HEAD 
                                                   Max.-Head-Change                         Max.-Flux-Residual
  Residual-Control   Outer-Iter.   Inner-Iter.     Column Row Layer    Maximum-Head-Change  Column Row Layer    Maximum-Flux-Residual          L2-NORM 
          0                 1           2             4    7     1       0.4284004343E-01       4    7    1         0.2258538089E+01      0.5352231276E+01
          0                 2           2             4    7     1      -0.4167190186E-02       4    7    1        -0.2258553169E+00      0.5352154496E+00
          0                 3           2             4    7     1       0.2837678477E-03       4    7    1         0.1580974669E-01      0.3746434337E-01
          0                 4           1             4    7     1      -0.1129349146E-04       4    7    1        -0.6467388157E-03      0.1532505822E-02

    ------------------------------------------------
       NWT REQUIRED            4 OUTER ITERATIONS 
       AND A TOTAL OF          7 INNER ITERATIONS.
    ------------------------------------------------

 NO OUTPUT CONTROL FOR STRESS PERIOD   22   TIME STEP   26
 
 SOLVING FOR HEAD 
                                                   Max.-Head-Change                         Max.-Flux-Residual
  Residual-Control   Outer-Iter.   Inner-Iter.     Column Row Layer    Maximum-Head-Change  Column Row Layer    Maximum-Flux-Residual          L2-NORM 
          0                 1           2             4    7     1       0.4220959614E-01       4    7    1         0.2225808222E+01      0.5246419986E+01
          0                 2           2             4    7     1      -0.4105865096E-02       4    7    1        -0.2225823445E+00      0.5246348809E+00
          0                 3           2             4    7     1       0.2795918332E-03       4    7    1         0.1558063835E-01      0.3672373203E-01
          0                 4           1             4    7     1      -0.1112732388E-04       4    7    1        -0.6373682650E-03      0.1502202426E-02

    ------------------------------------------------
       NWT REQUIRED            4 OUTER ITERATIONS 
       AND A TOTAL OF          7 INNER ITERATIONS.
    ------------------------------------------------

 NO OUTPUT CONTROL FOR STRESS PERIOD   22   TIME STEP   27
 
 SOLVING FOR HEAD 
                                                   Max.-Head-Change                         Max.-Flux-Residual
  Residual-Control   Outer-Iter.   Inner-Iter.     Column Row Layer    Maximum-Head-Change  Column Row Layer    Maximum-Flux-Residual          L2-NORM 
          0                 1           2             4    7     1       0.4157958817E-01       4    7    1         0.2193056608E+01      0.5144184292E+01
          0                 2           2             4    7     1      -0.4044582653E-02       4    7    1        -0.2193071919E+00      0.5144118735E+00
          0                 3           2             4    7     1       0.2754187248E-03       4    7    1         0.1535137749E-01      0.3600816885E-01
          0                 4           1             4    7     1      -0.1096127212E-04       4    7    1        -0.6279914917E-03      0.1472951851E-02

    ------------------------------------------------
       NWT REQUIRED            4 OUTER ITERATIONS 
       AND A TOTAL OF          7 INNER ITERATIONS.
    ------------------------------------------------

 NO OUTPUT CONTROL FOR STRESS PERIOD   22   TIME STEP   28
 
 SOLVING FOR HEAD 
                                                   Max.-Head-Change                         Max.-Flux-Residual
  Residual-Control   Outer-Iter.   Inner-Iter.     Column Row Layer    Maximum-Head-Change  Column Row Layer    Maximum-Flux-Residual          L2-NORM 
          0                 1           2             4    7     1       0.4095066443E-01       4    7    1         0.2160320380E+01      0.5045342777E+01
          0                 2           2             4    7     1      -0.3983405600E-02       4    7    1        -0.2160335728E+00      0.5045282005E+00
          0                 3           2             4    7     1       0.2712527936E-03       4    7    1         0.1512222403E-01      0.3531633509E-01
          0                 4           1             4    7     1      -0.1079550576E-04       4    7    1        -0.6186190967E-03      0.1444651549E-02

    ------------------------------------------------
       NWT REQUIRED            4 OUTER ITERATIONS 
       AND A TOTAL OF          7 INNER ITERATIONS.
    ------------------------------------------------

 NO OUTPUT CONTROL FOR STRESS PERIOD   22   TIME STEP   29
 
 SOLVING FOR HEAD 
                                                   Max.-Head-Change                         Max.-Flux-Residual
  Residual-Control   Outer-Iter.   Inner-Iter.     Column Row Layer    Maximum-Head-Change  Column Row Layer    Maximum-Flux-Residual          L2-NORM 
          0                 1           2             4    7     1       0.4032368574E-01       4    7    1         0.2127647614E+01      0.4951456187E+01
          0                 2           2             4    7     1      -0.3922417679E-02       4    7    1        -0.2127662953E+00      0.4951376154E+00
          0                 3           2             4    7     1       0.2670997423E-03       4    7    1         0.1489351452E-01      0.3465878812E-01
          0                 4           1             4    7     1      -0.1063025195E-04       4    7    1        -0.6092648709E-03      0.1417726681E-02

    ------------------------------------------------
       NWT REQUIRED            4 OUTER ITERATIONS 
       AND A TOTAL OF          7 INNER ITERATIONS.
    ------------------------------------------------

 NO OUTPUT CONTROL FOR STRESS PERIOD   22   TIME STEP   30



 STREAM LISTING     PERIOD     22   STEP       30

 LAYER ROW COL. STREAM  RCH.  FLOW INTO     FLOW TO   FLOW OUT OF   OVRLND.     DIRECT     STREAM       STREAM     STREAM     STREAM   STREAMBED  STREAMBED
                SEG.NO.  NO.  STRM. RCH.    AQUIFER    STRM. RCH.    RUNOFF     PRECIP       ET          HEAD       DEPTH      WIDTH   CONDCTNC.   GRADIENT

   1    1    1     1     1    2.4431E+01  2.4251E-01   2.4189E+01  0.000E+00  0.000E+00  0.000E+00  1.09422E+03  1.170E+00  1.292E+01  5.816E-02  1.390E+00
   1    2    2     1     2    2.4189E+01  3.7499E-01   2.3814E+01  0.000E+00  0.000E+00  0.000E+00  1.08922E+03  1.165E+00  1.286E+01  9.003E-02  1.388E+00
   1    3    3     1     3    2.3814E+01  3.1923E-01   2.3495E+01  0.000E+00  0.000E+00  0.000E+00  1.08358E+03  1.160E+00  1.279E+01  7.674E-02  1.387E+00
   1    3    4     1     4    2.3495E+01  2.9350E-01   2.3201E+01  0.000E+00  0.000E+00  0.000E+00  1.07856E+03  1.155E+00  1.273E+01  7.064E-02  1.385E+00
   1    4    5     2     1    2.1201E+01  3.1894E-01   2.0882E+01  0.000E+00  0.000E+00  0.000E+00  1.07302E+03  1.089E+00  1.200E+01  7.800E-02  1.363E+00
   1    5    6     2     2    2.0882E+01  2.4481E-01   2.0637E+01  0.000E+00  0.000E+00  0.000E+00  1.06759E+03  1.080E+00  1.200E+01  6.000E-02  1.360E+00
   1    6    6     2     3    2.0637E+01  2.4435E-01   2.0393E+01  0.000E+00  0.000E+00  0.000E+00  1.06286E+03  1.072E+00  1.200E+01  6.000E-02  1.357E+00
   1    7    6     2     4    2.0393E+01  2.4389E-01   2.0149E+01  0.000E+00  0.000E+00  0.000E+00  1.05814E+03  1.065E+00  1.200E+01  6.000E-02  1.355E+00
   1    8    6     2     5    2.0149E+01  2.4343E-01   1.9906E+01  0.000E+00  0.000E+00  0.000E+00  1.05342E+03  1.057E+00  1.200E+01  6.000E-02  1.352E+00
   1    3    5     3     1    2.0000E+00  2.8252E-01   1.7175E+00  0.000E+00  0.000E+00  0.000E+00  1.07555E+03  1.909E+00  9.636E+00  7.227E-02  1.955E+00
   1    3    6     3     2    1.7175E+00  2.4905E-01   1.4684E+00  0.000E+00  0.000E+00  0.000E+00  1.07264E+03  1.727E+00  8.909E+00  6.682E-02  1.864E+00
   1    3    7     3     3    1.4684E+00  1.9718E-01   1.2712E+00  0.000E+00  0.000E+00  0.000E+00  1.06987E+03  1.555E+00  8.218E+00  5.547E-02  1.777E+00
   1    4    8     3     4    1.2712E+00  2.2567E-01   1.0456E+00  0.000E+00  0.000E+00  0.000E+00  1.06682E+03  1.364E+00  7.455E+00  6.709E-02  1.682E+00
   1    5    8     3     5    1.0456E+00  1.5790E-01   8.8768E-01  0.000E+00  0.000E+00  0.000E+00  1.06362E+03  1.164E+00  6.655E+00  4.991E-02  1.582E+00
   1    6    8     3     6    8.8768E-01  5.5980E-02   8.3170E-01  0.000E+00  0.000E+00  0.000E+00  1.06158E+03  1.036E+00  6.145E+00  1.844E-02  1.518E+00
   1    5   10     4     1    1.0000E+01  9.0919E-02   9.9091E+00  0.000E+00  0.000E+00  0.000E+00  1.07836E+03  6.368E-01  1.000E+01  2.500E-02  1.212E+00
   1    5    9     4     2    9.9091E+00  1.8158E-01   9.7275E+00  0.000E+00  0.000E+00  0.000E+00  1.07154E+03  6.315E-01  1.000E+01  5.000E-02  1.211E+00
   1    6    8     4     3    9.7275E+00  1.2689E-01   9.6006E+00  0.000E+00  0.000E+00  0.000E+00  1.06381E+03  6.256E-01  1.000E+01  3.500E-02  1.209E+00
   1    6    8     5     1    1.0432E+01  2.2686E-01   1.0205E+01  0.000E+00  0.000E+00  0.000E+00  1.05868E+03  6.790E-01  1.542E+01  6.166E-02  1.226E+00
   1    7    7     5     2    1.0205E+01  2.7894E-01   9.9265E+00  0.000E+00  0.000E+00  0.000E+00  1.05417E+03  6.732E-01  1.519E+01  7.594E-02  1.224E+00
   1    8    7     5     3    9.9265E+00  1.9221E-01   9.7343E+00  0.000E+00  0.000E+00  0.000E+00  1.04992E+03  6.676E-01  1.497E+01  5.241E-02  1.223E+00
   1    8    6     5     4    9.7343E+00  1.3577E-01   9.5985E+00  0.000E+00  0.000E+00  0.000E+00  1.04691E+03  6.637E-01  1.482E+01  3.706E-02  1.221E+00
   1    9    6     6     1    2.9504E+01  2.6070E-01   2.9244E+01  0.000E+00  0.000E+00  0.000E+00  1.04407E+03  1.345E+00  1.200E+01  6.000E-02  1.448E+00
   1   10    7     6     2    2.9244E+01  2.6027E-01   2.8983E+01  0.000E+00  0.000E+00  0.000E+00  1.03952E+03  1.338E+00  1.200E+01  6.000E-02  1.446E+00
   1   11    7     6     3    2.8983E+01  2.5984E-01   2.8723E+01  0.000E+00  0.000E+00  0.000E+00  1.03497E+03  1.331E+00  1.200E+01  6.000E-02  1.444E+00
   1   12    7     6     4    2.8723E+01  2.5941E-01   2.8464E+01  0.000E+00  0.000E+00  0.000E+00  1.03041E+03  1.324E+00  1.200E+01  6.000E-02  1.441E+00
   1   13    7     6     5    2.8464E+01  4.3616E-03   2.8460E+01  0.000E+00  0.000E+00  0.000E+00  1.02723E+03  1.320E+00  1.200E+01  2.400E-02  6.058E-02
   1   14    9     7     1    1.5000E+02  1.3341E+00   1.4867E+02  0.000E+00  0.000E+00  0.000E+00  1.03987E+03  2.288E+00  5.529E+01  5.593E-01  7.951E-01
   1   13    8     7     2    1.4867E+02  1.8375E+00   1.4683E+02  0.000E+00  0.000E+00  0.000E+00  1.03478E+03  2.279E+00  5.526E+01  6.148E-01  9.963E-01
   1   13    7     7     3    1.4683E+02  1.4757E+00   1.4535E+02  0.000E+00  0.000E+00  0.000E+00  1.02969E+03  2.270E+00  5.522E+01  5.585E-01  8.809E-01
   1   13    6     8     1    1.7381E+02  9.4133E-01   1.7287E+02  0.000E+00  0.000E+00  0.000E+00  1.02485E+03  2.974E+00  4.312E+01  4.394E-01  7.141E-01
   1   13    5     8     2    1.7287E+02  1.9106E-01   1.7268E+02  0.000E+00  0.000E+00  0.000E+00  1.01860E+03  2.970E+00  4.307E+01  4.389E-01  1.451E-01
   1   13    4     8     3    1.7268E+02 -2.3943E+00   1.7507E+02  0.000E+00  0.000E+00  0.000E+00  1.01235E+03  2.977E+00  4.317E+01  4.399E+00 -1.814E-01
   1   13    3     8     4    1.7507E+02 -3.6539E+00   1.7873E+02  0.000E+00  0.000E+00  0.000E+00  1.00612E+03  2.997E+00  4.345E+01  4.428E+00 -2.751E-01
   1   13    2     8     5    1.7873E+02 -2.6120E+00   1.8134E+02  0.000E+00  0.000E+00  0.000E+00  9.99891E+02  3.016E+00  4.374E+01  4.457E+00 -1.953E-01
   1   13    1     8     6    1.8134E+02 -2.0293E+00   1.8337E+02  0.000E+00  0.000E+00  0.000E+00  9.94906E+02  3.031E+00  4.395E+01  2.687E+00 -2.517E-01





UNSATURATED ZONE PACKAGE VOLUMETRIC BUDGET FOR  TIME STEP    30 STRESS PERIOD   22
  ------------------------------------------------------------------------------



     CUMULATIVE VOLUMES      L**3       RATES FOR THIS TIME STEP      L**3/T
     ------------------                 ------------------------

           IN:                                      IN:
           ---                                      ---
        INFILTRATION =  1039554842.0925          INFILTRATION =          15.3489

          OUT:                                     OUT:
          ----                                     ----
              UZF ET =   984722334.1210                UZF ET =          15.3575
        UZF RECHARGE =      797698.7981          UZF RECHARGE =       0.0000E+00

            IN - OUT =    54034809.1735              IN - OUT =      -8.5530E-03

          STORAGE:                                 STORAGE:
          --------                                 --------
      STORAGE CHANGE =    54035748.5103        STORAGE CHANGE =      -8.5535E-03

 PERCENT DISCREPANCY IS DIFFERENCE BETWEEN IN-OUT MINUS CHANGE IN STORAGE
 DIVIDED BY THE AVERAGE OF IN AND OUT TIMES 100

 PERCENT DISCREPANCY =          -0.00     PERCENT DISCREPANCY =           0.00






1
  VOLUMETRIC BUDGET FOR AGRICULTURAL FIELDS AT TIME STEP   30, STRESS PERIOD  22
  ------------------------------------------------------------------------------

     CUMULATIVE VOLUMES      L**3       RATES FOR THIS TIME STEP      L**3/T
     ------------------                 ------------------------

           IN:                                      IN:
           ---                                      ---
               AG WELLS  =   796055104.0000                 AG WELLS  =          10.9414
      DIVERSION SEGMENTS =           0.0000        DIVERSION SEGMENTS =           0.0000
           GW IRRIGATION =           0.0000             GW IRRIGATION =           0.0000
           SW IRRIGATION =           0.0000             SW IRRIGATION =           0.0000
        SYSTEM LOSSES GW =           0.0000          SYSTEM LOSSES GW =           0.0000
        SYSTEM LOSSES SW =           0.0000          SYSTEM LOSSES SW =           0.0000

                TOTAL IN =   796055104.0000                  TOTAL IN =          10.9414

          OUT:                                     OUT:
          ----                                     ----
               AG WELLS  =           0.0000                 AG WELLS  =           0.0000
      DIVERSION SEGMENTS =           0.0000        DIVERSION SEGMENTS =           0.0000
           GW IRRIGATION =   796055104.0000             GW IRRIGATION =          10.9414
           SW IRRIGATION =           0.0000             SW IRRIGATION =           0.0000
        SYSTEM LOSSES GW =           0.0000          SYSTEM LOSSES GW =           0.0000
        SYSTEM LOSSES SW =           0.0000          SYSTEM LOSSES SW =           0.0000

               TOTAL OUT =   796055104.0000                 TOTAL OUT =          10.9414

                IN - OUT =           0.0000                  IN - OUT =           0.0000

     PERCENT DISCREPANCY =           0.00         PERCENT DISCREPANCY =           0.00



1
  VOLUMETRIC BUDGET FOR ENTIRE MODEL AT END OF TIME STEP   30, STRESS PERIOD  22
  ------------------------------------------------------------------------------

     CUMULATIVE VOLUMES      L**3       RATES FOR THIS TIME STEP      L**3/T
     ------------------                 ------------------------

           IN:                                      IN:
           ---                                      ---
             STORAGE     =   986319232.0000               STORAGE     =          19.6428
       CONSTANT HEAD     =           0.0000         CONSTANT HEAD     =           0.0000
     HEAD DEP BOUNDS     =    15789056.0000       HEAD DEP BOUNDS     =           0.2856
      STREAM LEAKAGE     =   692476544.0000        STREAM LEAKAGE     =          11.7514
        UZF RECHARGE     =      797698.6250          UZF RECHARGE     =           0.0000
               GW ET     =           0.0000                 GW ET     =           0.0000
     SURFACE LEAKAGE     =           0.0000       SURFACE LEAKAGE     =           0.0000
           AG WELLS      =           0.0000             AG WELLS      =           0.0000

                TOTAL IN =  1695382528.0000                  TOTAL IN =          31.6799

          OUT:                                     OUT:
          ----                                     ----
             STORAGE     =   291866016.0000               STORAGE     =           9.7580
       CONSTANT HEAD     =           0.0000         CONSTANT HEAD     =           0.0000
     HEAD DEP BOUNDS     =    16297293.0000       HEAD DEP BOUNDS     =           0.2911
      STREAM LEAKAGE     =   573822400.0000        STREAM LEAKAGE     =          10.6894
        UZF RECHARGE     =           0.0000          UZF RECHARGE     =           0.0000
               GW ET     =    17343536.0000                 GW ET     =           0.0000
     SURFACE LEAKAGE     =           0.0000       SURFACE LEAKAGE     =           0.0000
           AG WELLS      =   796055104.0000             AG WELLS      =          10.9414

               TOTAL OUT =  1695384320.0000                 TOTAL OUT =          31.6799

                IN - OUT =       -1792.0000                  IN - OUT =      -2.8610E-05

     PERCENT DISCREPANCY =          -0.00         PERCENT DISCREPANCY =          -0.00






         TIME SUMMARY AT END OF TIME STEP   30 IN STRESS PERIOD   22
                    SECONDS     MINUTES      HOURS       DAYS        YEARS
                    -----------------------------------------------------------
   TIME STEP LENGTH  87667.      1461.1      24.352      1.0147     2.77799E-03
 STRESS PERIOD TIME 2.63000E+06  43833.      730.56      30.440     8.33397E-02
         TOTAL TIME 5.53166E+07 9.21944E+05  15366.      640.24      1.7529    
1
1
                            STRESS PERIOD NO.   23, LENGTH =   2630000.    
                            -----------------------------------------------

                              NUMBER OF TIME STEPS =    30

                               MULTIPLIER FOR DELT =     1.000

                            INITIAL TIME STEP SIZE =   87666.66    

 REUSING NON-PARAMETER GHB CELLS FROM LAST STRESS PERIOD

      2 GHB CELLS

 REUSING STREAM SEGMENT DATA FROM LAST STRESS PERIOD



            AREAL INFILTRATION RATE
 READING ON UNIT   19 WITH FORMAT: (10F4.0)            

            1           2           3           4           5           6           7           8           9          10
 ........................................................................................................................
   1   1.2000E-09   0.000       0.000       0.000       0.000       0.000       0.000       0.000       0.000       0.000    
   2   2.1000E-09  2.0000E-09  8.0000E-10  8.5000E-09   0.000       0.000       0.000       0.000       0.000       0.000    
   3   5.0000E-10  1.1000E-09  8.8000E-09  5.5000E-09   0.000       0.000       0.000       0.000       0.000       0.000    
   4   8.5000E-09  1.1000E-09  1.1000E-09  1.1000E-09  2.0000E-09   0.000       0.000       0.000       0.000       0.000    
   5   8.5000E-09  1.1000E-09  1.1000E-09  1.1000E-09  1.1000E-09   0.000       0.000       0.000       0.000       0.000    
   6   8.5000E-09  5.2000E-09  2.1000E-09  1.1000E-09  1.5000E-09   0.000       0.000       0.000       0.000       0.000    
   7   8.5000E-09  5.2000E-09  2.1000E-09  1.2000E-09  2.0000E-09   0.000       0.000       0.000       0.000       0.000    
   8   5.0000E-10  5.2000E-09  2.1000E-09  1.2000E-09  5.0000E-09   0.000       0.000       0.000       0.000       0.000    
   9   5.0000E-10  5.2000E-09  2.1000E-09  1.2000E-09  5.0000E-09   0.000       0.000       0.000       0.000       0.000    
  10   5.0000E-10  5.2000E-09  2.1000E-09  1.2000E-09  5.8000E-09   0.000       0.000       0.000       0.000       0.000    
  11   1.0000E-10  1.1000E-09  1.1000E-09  1.2000E-09  5.0000E-09   0.000       0.000       0.000       0.000       0.000    
  12   1.1000E-09  1.1000E-09  1.1000E-09  1.1000E-09  2.0000E-09   0.000       0.000       0.000       0.000       0.000    
  13   1.1000E-09  2.2000E-09  2.2000E-09  2.1000E-09  1.0000E-09   0.000       0.000       0.000       0.000       0.000    
  14   2.0000E-10  5.5000E-09  5.5000E-09  5.2000E-09  1.0000E-09   0.000       0.000       0.000       0.000       0.000    
  15    0.000      8.8000E-09  8.8000E-09   0.000       0.000       0.000       0.000       0.000       0.000       0.000    

                  ET RATE =  5.000000E-09

 USING ET EXTINCTION DEPTH FROM PREVIOUS STRESS PERIOD. CURRENT PERIOD IS:      23

 USING EXTINCTION WATER CONTENT FROM PREVIOUS STRESS PERIOD. CURRENT PERIOD IS:      23

 USING AIR ENTRY PRESSURE FROM PREVIOUS STRESS PERIOD. CURRENT PERIOD IS:      23

 USING ROOT PRESSURE HEAD FROM PREVIOUS STRESS PERIOD. CURRENT PERIOD IS:      23

 USING ROOT ACTIVITY FROM PREVIOUS STRESS PERIOD. CURRENT PERIOD IS:      23

 PROCESSING AG STRESS PERIOD DATA

 READING AG STRESS PERIOD DATA

 READING IRRIGATION WELL

 END PROCESSING AG STRESS PERIOD DATA OPTIONS
 
 SOLVING FOR HEAD 
                                                   Max.-Head-Change                         Max.-Flux-Residual
  Residual-Control   Outer-Iter.   Inner-Iter.     Column Row Layer    Maximum-Head-Change  Column Row Layer    Maximum-Flux-Residual          L2-NORM 
          0                 1           2             4    7     1       0.7501122867E-01       4    7    1         0.3938707785E+01      0.8869569723E+01
          0                 2           2             4    7     1      -0.7296608793E-02       4    7    1        -0.3938749907E+00      0.8869448864E+00
          0                 3           2             4    7     1       0.4968714052E-03       4    7    1         0.2757122140E-01      0.6208510682E-01
          0                 4           1             4    7     1      -0.1977098070E-04       4    7    1        -0.1127664707E-02      0.2539230488E-02

    ------------------------------------------------
       NWT REQUIRED            4 OUTER ITERATIONS 
       AND A TOTAL OF          7 INNER ITERATIONS.
    ------------------------------------------------

 NO OUTPUT CONTROL FOR STRESS PERIOD   23   TIME STEP    1
 
 SOLVING FOR HEAD 
                                                   Max.-Head-Change                         Max.-Flux-Residual
  Residual-Control   Outer-Iter.   Inner-Iter.     Column Row Layer    Maximum-Head-Change  Column Row Layer    Maximum-Flux-Residual          L2-NORM 
          0                 1           2             4    7     1       0.7420386278E-01       4    7    1         0.3897387728E+01      0.8694551657E+01
          0                 2           2             4    7     1      -0.7218076097E-02       4    7    1        -0.3897431172E+00      0.8694446034E+00
          0                 3           2             4    7     1       0.4915236008E-03       4    7    1         0.2728198890E-01      0.6086017457E-01
          0                 4           1             4    7     1      -0.1955818667E-04       4    7    1        -0.1115835102E-02      0.2489128234E-02

    ------------------------------------------------
       NWT REQUIRED            4 OUTER ITERATIONS 
       AND A TOTAL OF          7 INNER ITERATIONS.
    ------------------------------------------------

 NO OUTPUT CONTROL FOR STRESS PERIOD   23   TIME STEP    2
 
 SOLVING FOR HEAD 
                                                   Max.-Head-Change                         Max.-Flux-Residual
  Residual-Control   Outer-Iter.   Inner-Iter.     Column Row Layer    Maximum-Head-Change  Column Row Layer    Maximum-Flux-Residual          L2-NORM 
          0                 1           2             4    7     1       0.7338626636E-01       4    7    1         0.3855440425E+01      0.8526140592E+01
          0                 2           2             4    7     1      -0.7145258591E-02       4    7    1        -0.3860173225E+00      0.8526314841E+00
          0                 3           2             4    7     1       0.4865649515E-03       4    7    1         0.2702117998E-01      0.5968334138E-01
          0                 4           1             4    7     1      -0.1936087742E-04       4    7    1        -0.1105167998E-02      0.2440983998E-02

    ------------------------------------------------
       NWT REQUIRED            4 OUTER ITERATIONS 
       AND A TOTAL OF          7 INNER ITERATIONS.
    ------------------------------------------------

 NO OUTPUT CONTROL FOR STRESS PERIOD   23   TIME STEP    3
 
 SOLVING FOR HEAD 
                                                   Max.-Head-Change                         Max.-Flux-Residual
  Residual-Control   Outer-Iter.   Inner-Iter.     Column Row Layer    Maximum-Head-Change  Column Row Layer    Maximum-Flux-Residual          L2-NORM 
          0                 1           2             4    7     1       0.7253733516E-01       4    7    1         0.3812604956E+01      0.8363907284E+01
          0                 2           2             4    7     1      -0.7055973896E-02       4    7    1        -0.3812652198E+00      0.8363827048E+00
          0                 3           2             4    7     1       0.4804849875E-03       4    7    1         0.2668853220E-01      0.5854599752E-01
          0                 4           1             4    7     1      -0.1911895036E-04       4    7    1        -0.1091562696E-02      0.2394467703E-02

    ------------------------------------------------
       NWT REQUIRED            4 OUTER ITERATIONS 
       AND A TOTAL OF          7 INNER ITERATIONS.
    ------------------------------------------------

 NO OUTPUT CONTROL FOR STRESS PERIOD   23   TIME STEP    4
 
 SOLVING FOR HEAD 
                                                   Max.-Head-Change                         Max.-Flux-Residual
  Residual-Control   Outer-Iter.   Inner-Iter.     Column Row Layer    Maximum-Head-Change  Column Row Layer    Maximum-Flux-Residual          L2-NORM 
          0                 1           2             4    7     1       0.7168891282E-01       4    7    1         0.3768860035E+01      0.8207486892E+01
          0                 2           2             4    7     1      -0.6973449550E-02       4    7    1        -0.3768907987E+00      0.8207454531E+00
          0                 3           2             4    7     1       0.4748653748E-03       4    7    1         0.2638232194E-01      0.5745146604E-01
          0                 4           1             4    7     1      -0.1889534067E-04       4    7    1        -0.1079038678E-02      0.2349723793E-02

    ------------------------------------------------
       NWT REQUIRED            4 OUTER ITERATIONS 
       AND A TOTAL OF          7 INNER ITERATIONS.
    ------------------------------------------------

 NO OUTPUT CONTROL FOR STRESS PERIOD   23   TIME STEP    5
 
 SOLVING FOR HEAD 
                                                   Max.-Head-Change                         Max.-Flux-Residual
  Residual-Control   Outer-Iter.   Inner-Iter.     Column Row Layer    Maximum-Head-Change  Column Row Layer    Maximum-Flux-Residual          L2-NORM 
          0                 1           2             4    7     1       0.7083524867E-01       4    7    1         0.3724769217E+01      0.8056542067E+01
          0                 2           2             4    7     1      -0.6890409235E-02       4    7    1        -0.3724817701E+00      0.8056481682E+00
          0                 3           2             4    7     1       0.4692106292E-03       4    7    1         0.2607368930E-01      0.5639472181E-01
          0                 4           1             4    7     1      -0.1867033287E-04       4    7    1        -0.1066415586E-02      0.2306513505E-02

    ------------------------------------------------
       NWT REQUIRED            4 OUTER ITERATIONS 
       AND A TOTAL OF          7 INNER ITERATIONS.
    ------------------------------------------------

 NO OUTPUT CONTROL FOR STRESS PERIOD   23   TIME STEP    6
 
 SOLVING FOR HEAD 
                                                   Max.-Head-Change                         Max.-Flux-Residual
  Residual-Control   Outer-Iter.   Inner-Iter.     Column Row Layer    Maximum-Head-Change  Column Row Layer    Maximum-Flux-Residual          L2-NORM 
          0                 1           2             4    7     1       0.6997807054E-01       4    7    1         0.3680421427E+01      0.7910748692E+01
          0                 2           2             4    7     1      -0.6807029741E-02       4    7    1        -0.3680470278E+00      0.7910696452E+00
          0                 3           2             4    7     1       0.4635327890E-03       4    7    1         0.2576325685E-01      0.5537428791E-01
          0                 4           1             4    7     1      -0.1844440669E-04       4    7    1        -0.1053718885E-02      0.2264779917E-02

    ------------------------------------------------
       NWT REQUIRED            4 OUTER ITERATIONS 
       AND A TOTAL OF          7 INNER ITERATIONS.
    ------------------------------------------------

 NO OUTPUT CONTROL FOR STRESS PERIOD   23   TIME STEP    7
 
 SOLVING FOR HEAD 
                                                   Max.-Head-Change                         Max.-Flux-Residual
  Residual-Control   Outer-Iter.   Inner-Iter.     Column Row Layer    Maximum-Head-Change  Column Row Layer    Maximum-Flux-Residual          L2-NORM 
          0                 1           2             4    7     1       0.6911871232E-01       4    7    1         0.3635891259E+01      0.7769849675E+01
          0                 2           2             4    7     1      -0.6723437960E-02       4    7    1        -0.3635940327E+00      0.7769804647E+00
          0                 3           2             4    7     1       0.4578404956E-03       4    7    1         0.2545154685E-01      0.5438809654E-01
          0                 4           1             4    7     1      -0.1821790500E-04       4    7    1        -0.1040969942E-02      0.2224458898E-02

    ------------------------------------------------
       NWT REQUIRED            4 OUTER ITERATIONS 
       AND A TOTAL OF          7 INNER ITERATIONS.
    ------------------------------------------------

 NO OUTPUT CONTROL FOR STRESS PERIOD   23   TIME STEP    8
 
 SOLVING FOR HEAD 
                                                   Max.-Head-Change                         Max.-Flux-Residual
  Residual-Control   Outer-Iter.   Inner-Iter.     Column Row Layer    Maximum-Head-Change  Column Row Layer    Maximum-Flux-Residual          L2-NORM 
          0                 1           2             4    7     1       0.6825814031E-01       4    7    1         0.3591233486E+01      0.7633574524E+01
          0                 2           2             4    7     1      -0.6639727907E-02       4    7    1        -0.3591282634E+00      0.7633535636E+00
          0                 3           2             4    7     1       0.4521401498E-03       4    7    1         0.2513894278E-01      0.5343424129E-01
          0                 4           1             4    7     1      -0.1799108313E-04       4    7    1        -0.1028184417E-02      0.2185435975E-02

    ------------------------------------------------
       NWT REQUIRED            4 OUTER ITERATIONS 
       AND A TOTAL OF          7 INNER ITERATIONS.
    ------------------------------------------------

 NO OUTPUT CONTROL FOR STRESS PERIOD   23   TIME STEP    9
 
 SOLVING FOR HEAD 
                                                   Max.-Head-Change                         Max.-Flux-Residual
  Residual-Control   Outer-Iter.   Inner-Iter.     Column Row Layer    Maximum-Head-Change  Column Row Layer    Maximum-Flux-Residual          L2-NORM 
          0                 1           2             4    7     1       0.6739777242E-01       4    7    1         0.3546527286E+01      0.7501681192E+01
          0                 2           2             4    7     1      -0.6556037530E-02       4    7    1        -0.3546576395E+00      0.7501648053E+00
          0                 3           2             4    7     1       0.4464411463E-03       4    7    1         0.2482599904E-01      0.5251105565E-01
          0                 4           1             4    7     1      -0.1776431434E-04       4    7    1        -0.1015385001E-02      0.2147668570E-02

    ------------------------------------------------
       NWT REQUIRED            4 OUTER ITERATIONS 
       AND A TOTAL OF          7 INNER ITERATIONS.
    ------------------------------------------------

 NO OUTPUT CONTROL FOR STRESS PERIOD   23   TIME STEP   10
 
 SOLVING FOR HEAD 
                                                   Max.-Head-Change                         Max.-Flux-Residual
  Residual-Control   Outer-Iter.   Inner-Iter.     Column Row Layer    Maximum-Head-Change  Column Row Layer    Maximum-Flux-Residual          L2-NORM 
          0                 1           2             4    7     1       0.6653852193E-01       4    7    1         0.3501824368E+01      0.7373938725E+01
          0                 2           2             4    7     1      -0.6472455683E-02       4    7    1        -0.3501873327E+00      0.7373910463E+00
          0                 3           2             4    7     1       0.4407495334E-03       4    7    1         0.2451307754E-01      0.5161695786E-01
          0                 4           1             4    7     1      -0.1753783935E-04       4    7    1        -0.1002586467E-02      0.2111114558E-02

    ------------------------------------------------
       NWT REQUIRED            4 OUTER ITERATIONS 
       AND A TOTAL OF          7 INNER ITERATIONS.
    ------------------------------------------------

 NO OUTPUT CONTROL FOR STRESS PERIOD   23   TIME STEP   11
 
 SOLVING FOR HEAD 
                                                   Max.-Head-Change                         Max.-Flux-Residual
  Residual-Control   Outer-Iter.   Inner-Iter.     Column Row Layer    Maximum-Head-Change  Column Row Layer    Maximum-Flux-Residual          L2-NORM 
          0                 1           2             4    7     1       0.6568135853E-01       4    7    1         0.3457179354E+01      0.7250139705E+01
          0                 2           2             4    7     1      -0.6389076707E-02       4    7    1        -0.3457228067E+00      0.7250115812E+00
          0                 3           2             4    7     1       0.4350717383E-03       4    7    1         0.2420056083E-01      0.5075042897E-01
          0                 4           1             4    7     1      -0.1731191479E-04       4    7    1        -0.9898045314E-03      0.2075669711E-02

    ------------------------------------------------
       NWT REQUIRED            4 OUTER ITERATIONS 
       AND A TOTAL OF          7 INNER ITERATIONS.
    ------------------------------------------------

 NO OUTPUT CONTROL FOR STRESS PERIOD   23   TIME STEP   12
 
 SOLVING FOR HEAD 
                                                   Max.-Head-Change                         Max.-Flux-Residual
  Residual-Control   Outer-Iter.   Inner-Iter.     Column Row Layer    Maximum-Head-Change  Column Row Layer    Maximum-Flux-Residual          L2-NORM 
          0                 1           2             4    7     1       0.6482716967E-01       4    7    1         0.3412642521E+01      0.7130087051E+01
          0                 2           2             4    7     1      -0.6305986946E-02       4    7    1        -0.3412690900E+00      0.7130085404E+00
          0                 3           2             4    7     1       0.4294136382E-03       4    7    1         0.2388880084E-01      0.4991022563E-01
          0                 4           1             4    7     1      -0.1708677379E-04       4    7    1        -0.9770535271E-03      0.2041319005E-02

    ------------------------------------------------
       NWT REQUIRED            4 OUTER ITERATIONS 
       AND A TOTAL OF          7 INNER ITERATIONS.
    ------------------------------------------------

 NO OUTPUT CONTROL FOR STRESS PERIOD   23   TIME STEP   13
 
 SOLVING FOR HEAD 
                                                   Max.-Head-Change                         Max.-Flux-Residual
  Residual-Control   Outer-Iter.   Inner-Iter.     Column Row Layer    Maximum-Head-Change  Column Row Layer    Maximum-Flux-Residual          L2-NORM 
          0                 1           2             4    7     1       0.6397690330E-01       4    7    1         0.3368267158E+01      0.7013599145E+01
          0                 2           2             4    7     1      -0.6223278623E-02       4    7    1        -0.3368315127E+00      0.7013582660E+00
          0                 3           2             4    7     1       0.4237815138E-03       4    7    1         0.2357817069E-01      0.4909472877E-01
          0                 4           1             4    7     1      -0.1686266606E-04       4    7    1        -0.9643487372E-03      0.2007952032E-02

    ------------------------------------------------
       NWT REQUIRED            4 OUTER ITERATIONS 
       AND A TOTAL OF          7 INNER ITERATIONS.
    ------------------------------------------------

 NO OUTPUT CONTROL FOR STRESS PERIOD   23   TIME STEP   14
 
 SOLVING FOR HEAD 
                                                   Max.-Head-Change                         Max.-Flux-Residual
  Residual-Control   Outer-Iter.   Inner-Iter.     Column Row Layer    Maximum-Head-Change  Column Row Layer    Maximum-Flux-Residual          L2-NORM 
          0                 1           2             4    7     1       0.6313102923E-01       4    7    1         0.3324080589E+01      0.6900497779E+01
          0                 2           2             4    7     1      -0.6140997449E-02       4    7    1        -0.3324128081E+00      0.6900483530E+00
          0                 3           2             4    7     1       0.4181784776E-03       4    7    1         0.2326886168E-01      0.4830305636E-01
          0                 4           1             4    7     1      -0.1663971582E-04       4    7    1        -0.9516979744E-03      0.1975591126E-02

    ------------------------------------------------
       NWT REQUIRED            4 OUTER ITERATIONS 
       AND A TOTAL OF          7 INNER ITERATIONS.
    ------------------------------------------------

 NO OUTPUT CONTROL FOR STRESS PERIOD   23   TIME STEP   15
 
 SOLVING FOR HEAD 
                                                   Max.-Head-Change                         Max.-Flux-Residual
  Residual-Control   Outer-Iter.   Inner-Iter.     Column Row Layer    Maximum-Head-Change  Column Row Layer    Maximum-Flux-Residual          L2-NORM 
          0                 1           2             4    7     1       0.6229063048E-01       4    7    1         0.3280143553E+01      0.6790640171E+01
          0                 2           2             4    7     1      -0.6059248788E-02       4    7    1        -0.3280190509E+00      0.6790628709E+00
          0                 3           2             4    7     1       0.4126117044E-03       4    7    1         0.2296129905E-01      0.4753410767E-01
          0                 4           1             4    7     1      -0.1641820882E-04       4    7    1        -0.9391186493E-03      0.1944137160E-02

    ------------------------------------------------
       NWT REQUIRED            4 OUTER ITERATIONS 
       AND A TOTAL OF          7 INNER ITERATIONS.
    ------------------------------------------------

 NO OUTPUT CONTROL FOR STRESS PERIOD   23   TIME STEP   16
 
 SOLVING FOR HEAD 
                                                   Max.-Head-Change                         Max.-Flux-Residual
  Residual-Control   Outer-Iter.   Inner-Iter.     Column Row Layer    Maximum-Head-Change  Column Row Layer    Maximum-Flux-Residual          L2-NORM 
          0                 1           2             4    7     1       0.6145603843E-01       4    7    1         0.3236475824E+01      0.6683865296E+01
          0                 2           2             4    7     1      -0.5978064883E-02       4    7    1        -0.3236522192E+00      0.6683856015E+00
          0                 3           2             4    7     1       0.4070833900E-03       4    7    1         0.2265562125E-01      0.4678670221E-01
          0                 4           1             4    7     1      -0.1619823210E-04       4    7    1        -0.9266164147E-03      0.1913554189E-02

    ------------------------------------------------
       NWT REQUIRED            4 OUTER ITERATIONS 
       AND A TOTAL OF          7 INNER ITERATIONS.
    ------------------------------------------------

 NO OUTPUT CONTROL FOR STRESS PERIOD   23   TIME STEP   17
 
 SOLVING FOR HEAD 
                                                   Max.-Head-Change                         Max.-Flux-Residual
  Residual-Control   Outer-Iter.   Inner-Iter.     Column Row Layer    Maximum-Head-Change  Column Row Layer    Maximum-Flux-Residual          L2-NORM 
          0                 1           2             4    7     1       0.6062780976E-01       4    7    1         0.3193109133E+01      0.6580047435E+01
          0                 2           2             4    7     1      -0.5897499895E-02       4    7    1        -0.3193154869E+00      0.6580040224E+00
          0                 3           2             4    7     1       0.4015972217E-03       4    7    1         0.2235205046E-01      0.4606002381E-01
          0                 4           1             4    7     1      -0.1597993186E-04       4    7    1        -0.9142003275E-03      0.1883842260E-02

    ------------------------------------------------
       NWT REQUIRED            4 OUTER ITERATIONS 
       AND A TOTAL OF          7 INNER ITERATIONS.
    ------------------------------------------------

 NO OUTPUT CONTROL FOR STRESS PERIOD   23   TIME STEP   18
 
 SOLVING FOR HEAD 
                                                   Max.-Head-Change                         Max.-Flux-Residual
  Residual-Control   Outer-Iter.   Inner-Iter.     Column Row Layer    Maximum-Head-Change  Column Row Layer    Maximum-Flux-Residual          L2-NORM 
          0                 1           2             4    7     1       0.5980658058E-01       4    7    1         0.3150079626E+01      0.6479050746E+01
          0                 2           2             4    7     1      -0.5817615710E-02       4    7    1        -0.3150124691E+00      0.6479047432E+00
          0                 3           2             4    7     1       0.3961574148E-03       4    7    1         0.2205083972E-01      0.4535333058E-01
          0                 4           1             4    7     1      -0.1576347712E-04       4    7    1        -0.9018808014E-03      0.1854922994E-02

    ------------------------------------------------
       NWT REQUIRED            4 OUTER ITERATIONS 
       AND A TOTAL OF          7 INNER ITERATIONS.
    ------------------------------------------------

 NO OUTPUT CONTROL FOR STRESS PERIOD   23   TIME STEP   19
 
 SOLVING FOR HEAD 
                                                   Max.-Head-Change                         Max.-Flux-Residual
  Residual-Control   Outer-Iter.   Inner-Iter.     Column Row Layer    Maximum-Head-Change  Column Row Layer    Maximum-Flux-Residual          L2-NORM 
          0                 1           2             4    7     1       0.5899279158E-01       4    7    1         0.3107413006E+01      0.6380749761E+01
          0                 2           2             4    7     1      -0.5738455203E-02       4    7    1        -0.3107457367E+00      0.6380745573E+00
          0                 3           2             4    7     1       0.3907668881E-03       4    7    1         0.2175216900E-01      0.4466497854E-01
          0                 4           1             4    7     1      -0.1554898335E-04       4    7    1        -0.8896651602E-03      0.1826784081E-02

    ------------------------------------------------
       NWT REQUIRED            4 OUTER ITERATIONS 
       AND A TOTAL OF          7 INNER ITERATIONS.
    ------------------------------------------------

 NO OUTPUT CONTROL FOR STRESS PERIOD   23   TIME STEP   20
 
 SOLVING FOR HEAD 
                                                   Max.-Head-Change                         Max.-Flux-Residual
  Residual-Control   Outer-Iter.   Inner-Iter.     Column Row Layer    Maximum-Head-Change  Column Row Layer    Maximum-Flux-Residual          L2-NORM 
          0                 1           2             4    7     1       0.5818670676E-01       4    7    1         0.3065124840E+01      0.6285042111E+01
          0                 2           2             4    7     1      -0.5660044062E-02       4    7    1        -0.3065168471E+00      0.6285039426E+00
          0                 3           2             4    7     1       0.3854273900E-03       4    7    1         0.2145614728E-01      0.4399505687E-01
          0                 4           1             4    7     1      -0.1533651905E-04       4    7    1        -0.8775578247E-03      0.1799437834E-02

    ------------------------------------------------
       NWT REQUIRED            4 OUTER ITERATIONS 
       AND A TOTAL OF          7 INNER ITERATIONS.
    ------------------------------------------------

 NO OUTPUT CONTROL FOR STRESS PERIOD   23   TIME STEP   21
 
 SOLVING FOR HEAD 
                                                   Max.-Head-Change                         Max.-Flux-Residual
  Residual-Control   Outer-Iter.   Inner-Iter.     Column Row Layer    Maximum-Head-Change  Column Row Layer    Maximum-Flux-Residual          L2-NORM 
          0                 1           2             4    7     1       0.5738894935E-01       4    7    1         0.3023250664E+01      0.6191817088E+01
          0                 2           2             4    7     1      -0.5582442918E-02       4    7    1        -0.3023293541E+00      0.6191814950E+00
          0                 3           2             4    7     1       0.3801430507E-03       4    7    1         0.2116302336E-01      0.4334246454E-01
          0                 4           1             4    7     1      -0.1512625046E-04       4    7    1        -0.8655690453E-03      0.1772692788E-02

    ------------------------------------------------
       NWT REQUIRED            4 OUTER ITERATIONS 
       AND A TOTAL OF          7 INNER ITERATIONS.
    ------------------------------------------------

 NO OUTPUT CONTROL FOR STRESS PERIOD   23   TIME STEP   22
 
 SOLVING FOR HEAD 
                                                   Max.-Head-Change                         Max.-Flux-Residual
  Residual-Control   Outer-Iter.   Inner-Iter.     Column Row Layer    Maximum-Head-Change  Column Row Layer    Maximum-Flux-Residual          L2-NORM 
          0                 1           2             4    7     1       0.5659969255E-01       4    7    1         0.2981800944E+01      0.6100972190E+01
          0                 2           2             4    7     1      -0.5505668623E-02       4    7    1        -0.2981843050E+00      0.6100971058E+00
          0                 3           2             4    7     1       0.3749150169E-03       4    7    1         0.2087287053E-01      0.4270659026E-01
          0                 4           1             4    7     1      -0.1491822225E-04       4    7    1        -0.8537017766E-03      0.1746694211E-02

    ------------------------------------------------
       NWT REQUIRED            4 OUTER ITERATIONS 
       AND A TOTAL OF          7 INNER ITERATIONS.
    ------------------------------------------------

 NO OUTPUT CONTROL FOR STRESS PERIOD   23   TIME STEP   23
 
 SOLVING FOR HEAD 
                                                   Max.-Head-Change                         Max.-Flux-Residual
  Residual-Control   Outer-Iter.   Inner-Iter.     Column Row Layer    Maximum-Head-Change  Column Row Layer    Maximum-Flux-Residual          L2-NORM 
          0                 1           2             4    7     1       0.5581920656E-01       4    7    1         0.2940791944E+01      0.6012414822E+01
          0                 2           2             4    7     1      -0.5429747469E-02       4    7    1        -0.2940833264E+00      0.6012414624E+00
          0                 3           2             4    7     1       0.3697450791E-03       4    7    1         0.2058580265E-01      0.4208670232E-01
          0                 4           1             4    7     1      -0.1471250558E-04       4    7    1        -0.8419606872E-03      0.1721341476E-02

    ------------------------------------------------
       NWT REQUIRED            4 OUTER ITERATIONS 
       AND A TOTAL OF          7 INNER ITERATIONS.
    ------------------------------------------------

 NO OUTPUT CONTROL FOR STRESS PERIOD   23   TIME STEP   24
 
 SOLVING FOR HEAD 
                                                   Max.-Head-Change                         Max.-Flux-Residual
  Residual-Control   Outer-Iter.   Inner-Iter.     Column Row Layer    Maximum-Head-Change  Column Row Layer    Maximum-Flux-Residual          L2-NORM 
          0                 1           2             4    7     1       0.5504772822E-01       4    7    1         0.2900237674E+01      0.5926052326E+01
          0                 2           2             4    7     1      -0.5354702496E-02       4    7    1        -0.2900278197E+00      0.5926052792E+00
          0                 3           2             4    7     1       0.3646348054E-03       4    7    1         0.2030191780E-01      0.4148218700E-01
          0                 4           1             4    7     1      -0.1450916249E-04       4    7    1        -0.8303497443E-03      0.1696616786E-02

    ------------------------------------------------
       NWT REQUIRED            4 OUTER ITERATIONS 
       AND A TOTAL OF          7 INNER ITERATIONS.
    ------------------------------------------------

 NO OUTPUT CONTROL FOR STRESS PERIOD   23   TIME STEP   25
 
 SOLVING FOR HEAD 
                                                   Max.-Head-Change                         Max.-Flux-Residual
  Residual-Control   Outer-Iter.   Inner-Iter.     Column Row Layer    Maximum-Head-Change  Column Row Layer    Maximum-Flux-Residual          L2-NORM 
          0                 1           2             4    7     1       0.5428559368E-01       4    7    1         0.2860157701E+01      0.5841805275E+01
          0                 2           2             4    7     1      -0.5280566408E-02       4    7    1        -0.2860197420E+00      0.5841804740E+00
          0                 3           2             4    7     1       0.3595864248E-03       4    7    1         0.2002135299E-01      0.4089234235E-01
          0                 4           1             4    7     1      -0.1430828313E-04       4    7    1        -0.8188746660E-03      0.1672478920E-02

    ------------------------------------------------
       NWT REQUIRED            4 OUTER ITERATIONS 
       AND A TOTAL OF          7 INNER ITERATIONS.
    ------------------------------------------------

 NO OUTPUT CONTROL FOR STRESS PERIOD   23   TIME STEP   26
 
 SOLVING FOR HEAD 
                                                   Max.-Head-Change                         Max.-Flux-Residual
  Residual-Control   Outer-Iter.   Inner-Iter.     Column Row Layer    Maximum-Head-Change  Column Row Layer    Maximum-Flux-Residual          L2-NORM 
          0                 1           2             4    7     1       0.5353296923E-01       4    7    1         0.2820562168E+01      0.5759597077E+01
          0                 2           2             4    7     1      -0.5207355386E-02       4    7    1        -0.2820601077E+00      0.5759598588E+00
          0                 3           2             4    7     1       0.3546010374E-03       4    7    1         0.1974417926E-01      0.4031702307E-01
          0                 4           1             4    7     1      -0.1410990999E-04       4    7    1        -0.8075382402E-03      0.1648965644E-02

    ------------------------------------------------
       NWT REQUIRED            4 OUTER ITERATIONS 
       AND A TOTAL OF          7 INNER ITERATIONS.
    ------------------------------------------------

 NO OUTPUT CONTROL FOR STRESS PERIOD   23   TIME STEP   27
 
 SOLVING FOR HEAD 
                                                   Max.-Head-Change                         Max.-Flux-Residual
  Residual-Control   Outer-Iter.   Inner-Iter.     Column Row Layer    Maximum-Head-Change  Column Row Layer    Maximum-Flux-Residual          L2-NORM 
          0                 1           2             4    7     1       0.5278985955E-01       4    7    1         0.2781452411E+01      0.5679339335E+01
          0                 2           2             4    7     1      -0.5135069888E-02       4    7    1        -0.2781490508E+00      0.5679340957E+00
          0                 3           2             4    7     1       0.3496786742E-03       4    7    1         0.1947040592E-01      0.3975520563E-01
          0                 4           1             4    7     1      -0.1391404421E-04       4    7    1        -0.7963408682E-03      0.1625974034E-02

    ------------------------------------------------
       NWT REQUIRED            4 OUTER ITERATIONS 
       AND A TOTAL OF          7 INNER ITERATIONS.
    ------------------------------------------------

 NO OUTPUT CONTROL FOR STRESS PERIOD   23   TIME STEP   28
 
 SOLVING FOR HEAD 
                                                   Max.-Head-Change                         Max.-Flux-Residual
  Residual-Control   Outer-Iter.   Inner-Iter.     Column Row Layer    Maximum-Head-Change  Column Row Layer    Maximum-Flux-Residual          L2-NORM 
          0                 1           2             4    7     1       0.5205651739E-01       4    7    1         0.2742843247E+01      0.5600977546E+01
          0                 2           2             4    7     1      -0.5063734503E-02       4    7    1        -0.2742880533E+00      0.5600979435E+00
          0                 3           2             4    7     1       0.3448210107E-03       4    7    1         0.1920013674E-01      0.3920668537E-01
          0                 4           1             4    7     1      -0.1372075337E-04       4    7    1        -0.7852868539E-03      0.1603542269E-02

    ------------------------------------------------
       NWT REQUIRED            4 OUTER ITERATIONS 
       AND A TOTAL OF          7 INNER ITERATIONS.
    ------------------------------------------------

 NO OUTPUT CONTROL FOR STRESS PERIOD   23   TIME STEP   29
 
 SOLVING FOR HEAD 
                                                   Max.-Head-Change                         Max.-Flux-Residual
  Residual-Control   Outer-Iter.   Inner-Iter.     Column Row Layer    Maximum-Head-Change  Column Row Layer    Maximum-Flux-Residual          L2-NORM 
          0                 1           2             4    7     1       0.5133316247E-01       4    7    1         0.2704747785E+01      0.5524433159E+01
          0                 2           2             4    7     1      -0.4993370606E-02       4    7    1        -0.2704784261E+00      0.5524435292E+00
          0                 3           2             4    7     1       0.3400295019E-03       4    7    1         0.1893346349E-01      0.3867087836E-01
          0                 4           1             4    7     1      -0.1353009470E-04       4    7    1        -0.7743799047E-03      0.1581625359E-02

    ------------------------------------------------
       NWT REQUIRED            4 OUTER ITERATIONS 
       AND A TOTAL OF          7 INNER ITERATIONS.
    ------------------------------------------------

 NO OUTPUT CONTROL FOR STRESS PERIOD   23   TIME STEP   30



 STREAM LISTING     PERIOD     23   STEP       30

 LAYER ROW COL. STREAM  RCH.  FLOW INTO     FLOW TO   FLOW OUT OF   OVRLND.     DIRECT     STREAM       STREAM     STREAM     STREAM   STREAMBED  STREAMBED
                SEG.NO.  NO.  STRM. RCH.    AQUIFER    STRM. RCH.    RUNOFF     PRECIP       ET          HEAD       DEPTH      WIDTH   CONDCTNC.   GRADIENT

   1    1    1     1     1    2.2000E+01  2.3088E-01   2.1769E+01  0.000E+00  0.000E+00  0.000E+00  1.09418E+03  1.132E+00  1.242E+01  5.588E-02  1.377E+00
   1    2    2     1     2    2.1769E+01  3.5689E-01   2.1413E+01  0.000E+00  0.000E+00  0.000E+00  1.08919E+03  1.127E+00  1.235E+01  8.648E-02  1.376E+00
   1    3    3     1     3    2.1413E+01  3.0372E-01   2.1109E+01  0.000E+00  0.000E+00  0.000E+00  1.08354E+03  1.121E+00  1.228E+01  7.369E-02  1.374E+00
   1    3    4     1     4    2.1109E+01  2.7914E-01   2.0830E+01  0.000E+00  0.000E+00  0.000E+00  1.07852E+03  1.117E+00  1.222E+01  6.781E-02  1.372E+00
   1    4    5     2     1    1.8830E+01  3.1306E-01   1.8517E+01  0.000E+00  0.000E+00  0.000E+00  1.07295E+03  1.014E+00  1.200E+01  7.800E-02  1.338E+00
   1    5    6     2     2    1.8517E+01  2.4027E-01   1.8276E+01  0.000E+00  0.000E+00  0.000E+00  1.06751E+03  1.005E+00  1.200E+01  6.000E-02  1.335E+00
   1    6    6     2     3    1.8276E+01  2.3980E-01   1.8037E+01  0.000E+00  0.000E+00  0.000E+00  1.06279E+03  9.967E-01  1.200E+01  6.000E-02  1.332E+00
   1    7    6     2     4    1.8037E+01  2.3933E-01   1.7797E+01  0.000E+00  0.000E+00  0.000E+00  1.05806E+03  9.888E-01  1.200E+01  6.000E-02  1.330E+00
   1    8    6     2     5    1.7797E+01  2.3885E-01   1.7558E+01  0.000E+00  0.000E+00  0.000E+00  1.05334E+03  9.808E-01  1.200E+01  6.000E-02  1.327E+00
   1    3    5     3     1    2.0000E+00  2.8252E-01   1.7175E+00  0.000E+00  0.000E+00  0.000E+00  1.07555E+03  1.909E+00  9.636E+00  7.227E-02  1.955E+00
   1    3    6     3     2    1.7175E+00  2.4905E-01   1.4684E+00  0.000E+00  0.000E+00  0.000E+00  1.07264E+03  1.727E+00  8.909E+00  6.682E-02  1.864E+00
   1    3    7     3     3    1.4684E+00  1.9718E-01   1.2712E+00  0.000E+00  0.000E+00  0.000E+00  1.06987E+03  1.555E+00  8.218E+00  5.547E-02  1.777E+00
   1    4    8     3     4    1.2712E+00  2.2567E-01   1.0456E+00  0.000E+00  0.000E+00  0.000E+00  1.06682E+03  1.364E+00  7.455E+00  6.709E-02  1.682E+00
   1    5    8     3     5    1.0456E+00  1.5790E-01   8.8768E-01  0.000E+00  0.000E+00  0.000E+00  1.06362E+03  1.164E+00  6.655E+00  4.991E-02  1.582E+00
   1    6    8     3     6    8.8768E-01  5.5980E-02   8.3170E-01  0.000E+00  0.000E+00  0.000E+00  1.06158E+03  1.036E+00  6.145E+00  1.844E-02  1.518E+00
   1    5   10     4     1    1.0000E+01  9.0919E-02   9.9091E+00  0.000E+00  0.000E+00  0.000E+00  1.07836E+03  6.368E-01  1.000E+01  2.500E-02  1.212E+00
   1    5    9     4     2    9.9091E+00  1.8158E-01   9.7275E+00  0.000E+00  0.000E+00  0.000E+00  1.07154E+03  6.315E-01  1.000E+01  5.000E-02  1.211E+00
   1    6    8     4     3    9.7275E+00  1.2689E-01   9.6006E+00  0.000E+00  0.000E+00  0.000E+00  1.06381E+03  6.256E-01  1.000E+01  3.500E-02  1.209E+00
   1    6    8     5     1    1.0432E+01  2.2686E-01   1.0205E+01  0.000E+00  0.000E+00  0.000E+00  1.05868E+03  6.790E-01  1.542E+01  6.166E-02  1.226E+00
   1    7    7     5     2    1.0205E+01  2.7894E-01   9.9265E+00  0.000E+00  0.000E+00  0.000E+00  1.05417E+03  6.732E-01  1.519E+01  7.594E-02  1.224E+00
   1    8    7     5     3    9.9265E+00  1.9221E-01   9.7343E+00  0.000E+00  0.000E+00  0.000E+00  1.04992E+03  6.676E-01  1.497E+01  5.241E-02  1.223E+00
   1    8    6     5     4    9.7343E+00  1.3577E-01   9.5985E+00  0.000E+00  0.000E+00  0.000E+00  1.04691E+03  6.637E-01  1.482E+01  3.706E-02  1.221E+00
   1    9    6     6     1    2.7157E+01  2.5677E-01   2.6900E+01  0.000E+00  0.000E+00  0.000E+00  1.04401E+03  1.280E+00  1.200E+01  6.000E-02  1.427E+00
   1   10    7     6     2    2.6900E+01  2.5634E-01   2.6644E+01  0.000E+00  0.000E+00  0.000E+00  1.03945E+03  1.272E+00  1.200E+01  6.000E-02  1.424E+00
   1   11    7     6     3    2.6644E+01  2.5590E-01   2.6388E+01  0.000E+00  0.000E+00  0.000E+00  1.03490E+03  1.265E+00  1.200E+01  6.000E-02  1.422E+00
   1   12    7     6     4    2.6388E+01  2.5546E-01   2.6132E+01  0.000E+00  0.000E+00  0.000E+00  1.03035E+03  1.258E+00  1.200E+01  6.000E-02  1.419E+00
   1   13    7     6     5    2.6132E+01  3.3706E-03   2.6129E+01  0.000E+00  0.000E+00  0.000E+00  1.02716E+03  1.254E+00  1.200E+01  2.400E-02  4.681E-02
   1   14    9     7     1    1.5000E+02  1.3350E+00   1.4866E+02  0.000E+00  0.000E+00  0.000E+00  1.03987E+03  2.288E+00  5.529E+01  5.593E-01  7.957E-01
   1   13    8     7     2    1.4866E+02  1.8429E+00   1.4682E+02  0.000E+00  0.000E+00  0.000E+00  1.03478E+03  2.279E+00  5.526E+01  6.148E-01  9.992E-01
   1   13    7     7     3    1.4682E+02  1.4895E+00   1.4533E+02  0.000E+00  0.000E+00  0.000E+00  1.02969E+03  2.270E+00  5.522E+01  5.584E-01  8.891E-01
   1   13    6     8     1    1.7146E+02  9.4888E-01   1.7051E+02  0.000E+00  0.000E+00  0.000E+00  1.02483E+03  2.959E+00  4.290E+01  4.372E-01  7.235E-01
   1   13    5     8     2    1.7051E+02  2.0404E-01   1.7031E+02  0.000E+00  0.000E+00  0.000E+00  1.01858E+03  2.955E+00  4.285E+01  4.366E-01  1.558E-01
   1   13    4     8     3    1.7031E+02 -2.3304E+00   1.7264E+02  0.000E+00  0.000E+00  0.000E+00  1.01234E+03  2.962E+00  4.295E+01  4.376E+00 -1.775E-01
   1   13    3     8     4    1.7264E+02 -3.6148E+00   1.7625E+02  0.000E+00  0.000E+00  0.000E+00  1.00611E+03  2.981E+00  4.322E+01  4.405E+00 -2.736E-01
   1   13    2     8     5    1.7625E+02 -2.5810E+00   1.7883E+02  0.000E+00  0.000E+00  0.000E+00  9.99876E+02  3.001E+00  4.351E+01  4.434E+00 -1.940E-01
   1   13    1     8     6    1.7883E+02 -1.9991E+00   1.8083E+02  0.000E+00  0.000E+00  0.000E+00  9.94890E+02  3.015E+00  4.372E+01  2.673E+00 -2.493E-01





UNSATURATED ZONE PACKAGE VOLUMETRIC BUDGET FOR  TIME STEP    30 STRESS PERIOD   23
  ------------------------------------------------------------------------------



     CUMULATIVE VOLUMES      L**3       RATES FOR THIS TIME STEP      L**3/T
     ------------------                 ------------------------

           IN:                                      IN:
           ---                                      ---
        INFILTRATION =  1051146566.6506          INFILTRATION =           4.4075

          OUT:                                     OUT:
          ----                                     ----
              UZF ET =   994664425.0477                UZF ET =           3.7800
        UZF RECHARGE =      797698.7981          UZF RECHARGE =       0.0000E+00

            IN - OUT =    55684442.8048              IN - OUT =           0.6275

          STORAGE:                                 STORAGE:
          --------                                 --------
      STORAGE CHANGE =    55685382.1464        STORAGE CHANGE =           0.6275

 PERCENT DISCREPANCY IS DIFFERENCE BETWEEN IN-OUT MINUS CHANGE IN STORAGE
 DIVIDED BY THE AVERAGE OF IN AND OUT TIMES 100

 PERCENT DISCREPANCY =          -0.00     PERCENT DISCREPANCY =           0.00






1
  VOLUMETRIC BUDGET FOR AGRICULTURAL FIELDS AT TIME STEP   30, STRESS PERIOD  23
  ------------------------------------------------------------------------------

     CUMULATIVE VOLUMES      L**3       RATES FOR THIS TIME STEP      L**3/T
     ------------------                 ------------------------

           IN:                                      IN:
           ---                                      ---
               AG WELLS  =   796055104.0000                 AG WELLS  =           0.0000
      DIVERSION SEGMENTS =           0.0000        DIVERSION SEGMENTS =           0.0000
           GW IRRIGATION =           0.0000             GW IRRIGATION =           0.0000
           SW IRRIGATION =           0.0000             SW IRRIGATION =           0.0000
        SYSTEM LOSSES GW =           0.0000          SYSTEM LOSSES GW =           0.0000
        SYSTEM LOSSES SW =           0.0000          SYSTEM LOSSES SW =           0.0000

                TOTAL IN =   796055104.0000                  TOTAL IN =           0.0000

          OUT:                                     OUT:
          ----                                     ----
               AG WELLS  =           0.0000                 AG WELLS  =           0.0000
      DIVERSION SEGMENTS =           0.0000        DIVERSION SEGMENTS =           0.0000
           GW IRRIGATION =   796055104.0000             GW IRRIGATION =           0.0000
           SW IRRIGATION =           0.0000             SW IRRIGATION =           0.0000
        SYSTEM LOSSES GW =           0.0000          SYSTEM LOSSES GW =           0.0000
        SYSTEM LOSSES SW =           0.0000          SYSTEM LOSSES SW =           0.0000

               TOTAL OUT =   796055104.0000                 TOTAL OUT =           0.0000

                IN - OUT =           0.0000                  IN - OUT =           0.0000

     PERCENT DISCREPANCY =           0.00         PERCENT DISCREPANCY =           0.00



1
  VOLUMETRIC BUDGET FOR ENTIRE MODEL AT END OF TIME STEP   30, STRESS PERIOD  23
  ------------------------------------------------------------------------------

     CUMULATIVE VOLUMES      L**3       RATES FOR THIS TIME STEP      L**3/T
     ------------------                 ------------------------

           IN:                                      IN:
           ---                                      ---
             STORAGE     =  1027570432.0000               STORAGE     =          13.2998
       CONSTANT HEAD     =           0.0000         CONSTANT HEAD     =           0.0000
     HEAD DEP BOUNDS     =    16540380.0000       HEAD DEP BOUNDS     =           0.2857
      STREAM LEAKAGE     =   723150080.0000        STREAM LEAKAGE     =          11.6916
        UZF RECHARGE     =      797698.6250          UZF RECHARGE     =           0.0000
               GW ET     =           0.0000                 GW ET     =           0.0000
     SURFACE LEAKAGE     =           0.0000       SURFACE LEAKAGE     =           0.0000
           AG WELLS      =           0.0000             AG WELLS      =           0.0000

                TOTAL IN =  1768058624.0000                  TOTAL IN =          25.2772

          OUT:                                     OUT:
          ----                                     ----
             STORAGE     =   335774208.0000               STORAGE     =          14.4616
       CONSTANT HEAD     =           0.0000         CONSTANT HEAD     =           0.0000
     HEAD DEP BOUNDS     =    17061498.0000       HEAD DEP BOUNDS     =           0.2902
      STREAM LEAKAGE     =   601826112.0000        STREAM LEAKAGE     =          10.5253
        UZF RECHARGE     =           0.0000          UZF RECHARGE     =           0.0000
               GW ET     =    17343536.0000                 GW ET     =           0.0000
     SURFACE LEAKAGE     =           0.0000       SURFACE LEAKAGE     =           0.0000
           AG WELLS      =   796055104.0000             AG WELLS      =           0.0000

               TOTAL OUT =  1768060416.0000                 TOTAL OUT =          25.2771

                IN - OUT =       -1792.0000                  IN - OUT =       9.5367E-06

     PERCENT DISCREPANCY =          -0.00         PERCENT DISCREPANCY =           0.00






         TIME SUMMARY AT END OF TIME STEP   30 IN STRESS PERIOD   23
                    SECONDS     MINUTES      HOURS       DAYS        YEARS
                    -----------------------------------------------------------
   TIME STEP LENGTH  87667.      1461.1      24.352      1.0147     2.77799E-03
 STRESS PERIOD TIME 2.63000E+06  43833.      730.56      30.440     8.33397E-02
         TOTAL TIME 5.79467E+07 9.65778E+05  16096.      670.68      1.8362    
1
1
                            STRESS PERIOD NO.   24, LENGTH =   2630000.    
                            -----------------------------------------------

                              NUMBER OF TIME STEPS =    30

                               MULTIPLIER FOR DELT =     1.000

                            INITIAL TIME STEP SIZE =   87666.66    

 REUSING NON-PARAMETER GHB CELLS FROM LAST STRESS PERIOD

      2 GHB CELLS

 REUSING STREAM SEGMENT DATA FROM LAST STRESS PERIOD



            AREAL INFILTRATION RATE
 READING ON UNIT   19 WITH FORMAT: (10F4.0)            

            1           2           3           4           5           6           7           8           9          10
 ........................................................................................................................
   1   1.2000E-09   0.000       0.000       0.000       0.000       0.000       0.000       0.000       0.000       0.000    
   2   2.1000E-09  2.0000E-09  8.0000E-10  8.5000E-09   0.000       0.000       0.000       0.000       0.000       0.000    
   3   5.0000E-10  1.1000E-09  8.8000E-09  5.5000E-09   0.000       0.000       0.000       0.000       0.000       0.000    
   4   8.5000E-09  1.1000E-09  1.1000E-09  1.1000E-09  2.0000E-09   0.000       0.000       0.000       0.000       0.000    
   5   8.5000E-09  1.1000E-09  1.1000E-09  1.1000E-09  1.1000E-09   0.000       0.000       0.000       0.000       0.000    
   6   8.5000E-09  5.2000E-09  2.1000E-09  1.1000E-09  1.5000E-09   0.000       0.000       0.000       0.000       0.000    
   7   8.5000E-09  5.2000E-09  2.1000E-09  1.2000E-09  2.0000E-09   0.000       0.000       0.000       0.000       0.000    
   8   5.0000E-10  5.2000E-09  2.1000E-09  1.2000E-09  5.0000E-09   0.000       0.000       0.000       0.000       0.000    
   9   5.0000E-10  5.2000E-09  2.1000E-09  1.2000E-09  5.0000E-09   0.000       0.000       0.000       0.000       0.000    
  10   5.0000E-10  5.2000E-09  2.1000E-09  1.2000E-09  5.8000E-09   0.000       0.000       0.000       0.000       0.000    
  11   1.0000E-10  1.1000E-09  1.1000E-09  1.2000E-09  5.0000E-09   0.000       0.000       0.000       0.000       0.000    
  12   1.1000E-09  1.1000E-09  1.1000E-09  1.1000E-09  2.0000E-09   0.000       0.000       0.000       0.000       0.000    
  13   1.1000E-09  2.2000E-09  2.2000E-09  2.1000E-09  1.0000E-09   0.000       0.000       0.000       0.000       0.000    
  14   2.0000E-10  5.5000E-09  5.5000E-09  5.2000E-09  1.0000E-09   0.000       0.000       0.000       0.000       0.000    
  15    0.000      8.8000E-09  8.8000E-09   0.000       0.000       0.000       0.000       0.000       0.000       0.000    

                  ET RATE =  5.000000E-10

 USING ET EXTINCTION DEPTH FROM PREVIOUS STRESS PERIOD. CURRENT PERIOD IS:      24

 USING EXTINCTION WATER CONTENT FROM PREVIOUS STRESS PERIOD. CURRENT PERIOD IS:      24

 USING AIR ENTRY PRESSURE FROM PREVIOUS STRESS PERIOD. CURRENT PERIOD IS:      24

 USING ROOT PRESSURE HEAD FROM PREVIOUS STRESS PERIOD. CURRENT PERIOD IS:      24

 USING ROOT ACTIVITY FROM PREVIOUS STRESS PERIOD. CURRENT PERIOD IS:      24

 PROCESSING AG STRESS PERIOD DATA

 READING AG STRESS PERIOD DATA

 READING IRRIGATION WELL

 END PROCESSING AG STRESS PERIOD DATA OPTIONS
 
 SOLVING FOR HEAD 
                                                   Max.-Head-Change                         Max.-Flux-Residual
  Residual-Control   Outer-Iter.   Inner-Iter.     Column Row Layer    Maximum-Head-Change  Column Row Layer    Maximum-Flux-Residual          L2-NORM 
          0                 1           2             4    7     1       0.5061958517E-01       4    7    1         0.2667155548E+01      0.5450284379E+01
          0                 2           2             4    7     1      -0.4923957810E-02       4    7    1        -0.2667191217E+00      0.5450276879E+00
          0                 3           2             4    7     1       0.3353027591E-03       4    7    1         0.1867031282E-01      0.3815167611E-01
          0                 4           1             4    7     1      -0.1334201315E-04       4    7    1        -0.7636170189E-03      0.1560387161E-02

    ------------------------------------------------
       NWT REQUIRED            4 OUTER ITERATIONS 
       AND A TOTAL OF          7 INNER ITERATIONS.
    ------------------------------------------------

 NO OUTPUT CONTROL FOR STRESS PERIOD   24   TIME STEP    1
 
 SOLVING FOR HEAD 
                                                   Max.-Head-Change                         Max.-Flux-Residual
  Residual-Control   Outer-Iter.   Inner-Iter.     Column Row Layer    Maximum-Head-Change  Column Row Layer    Maximum-Flux-Residual          L2-NORM 
          0                 1           2             4    7     1       0.4991609814E-01       4    7    1         0.2630084827E+01      0.5378255533E+01
          0                 2           2             4    7     1      -0.4855526532E-02       4    7    1        -0.2630119697E+00      0.5378230339E+00
          0                 3           2             4    7     1       0.3306428545E-03       4    7    1         0.1841081284E-01      0.3764725578E-01
          0                 4           1             4    7     1      -0.1315659094E-04       4    7    1        -0.7530034520E-03      0.1539799120E-02

    ------------------------------------------------
       NWT REQUIRED            4 OUTER ITERATIONS 
       AND A TOTAL OF          7 INNER ITERATIONS.
    ------------------------------------------------

 NO OUTPUT CONTROL FOR STRESS PERIOD   24   TIME STEP    2
 
 SOLVING FOR HEAD 
                                                   Max.-Head-Change                         Max.-Flux-Residual
  Residual-Control   Outer-Iter.   Inner-Iter.     Column Row Layer    Maximum-Head-Change  Column Row Layer    Maximum-Flux-Residual          L2-NORM 
          0                 1           2             4    7     1       0.4922272344E-01       4    7    1         0.2593537256E+01      0.5306753820E+01
          0                 2           2             4    7     1      -0.4788078917E-02       4    7    1        -0.2593571332E+00      0.5306730986E+00
          0                 3           2             4    7     1       0.3260499334E-03       4    7    1         0.1815497494E-01      0.3714672633E-01
          0                 4           1             4    7     1      -0.1297383417E-04       4    7    1        -0.7425396557E-03      0.1519316648E-02

    ------------------------------------------------
       NWT REQUIRED            4 OUTER ITERATIONS 
       AND A TOTAL OF          7 INNER ITERATIONS.
    ------------------------------------------------

 NO OUTPUT CONTROL FOR STRESS PERIOD   24   TIME STEP    3
 
 SOLVING FOR HEAD 
                                                   Max.-Head-Change                         Max.-Flux-Residual
  Residual-Control   Outer-Iter.   Inner-Iter.     Column Row Layer    Maximum-Head-Change  Column Row Layer    Maximum-Flux-Residual          L2-NORM 
          0                 1           2             4    7     1       0.4853932973E-01       4    7    1         0.2557506684E+01      0.5236841454E+01
          0                 2           2             4    7     1      -0.4721602190E-02       4    7    1        -0.2557539974E+00      0.5236821009E+00
          0                 3           2             4    7     1       0.3215231259E-03       4    7    1         0.1790275606E-01      0.3665738975E-01
          0                 4           1             4    7     1      -0.1279370840E-04       4    7    1        -0.7322238880E-03      0.1499265762E-02

    ------------------------------------------------
       NWT REQUIRED            4 OUTER ITERATIONS 
       AND A TOTAL OF          7 INNER ITERATIONS.
    ------------------------------------------------

 NO OUTPUT CONTROL FOR STRESS PERIOD   24   TIME STEP    4
 
 SOLVING FOR HEAD 
                                                   Max.-Head-Change                         Max.-Flux-Residual
  Residual-Control   Outer-Iter.   Inner-Iter.     Column Row Layer    Maximum-Head-Change  Column Row Layer    Maximum-Flux-Residual          L2-NORM 
          0                 1           2             4    7     1       0.4786604643E-01       4    7    1         0.2522000888E+01      0.5168462297E+01
          0                 2           2             4    7     1      -0.4656108946E-02       4    7    1        -0.2522033402E+00      0.5168443682E+00
          0                 3           2             4    7     1       0.3170632898E-03       4    7    1         0.1765421066E-01      0.3617875828E-01
          0                 4           1             4    7     1      -0.1261624726E-04       4    7    1        -0.7220583707E-03      0.1479692491E-02

    ------------------------------------------------
       NWT REQUIRED            4 OUTER ITERATIONS 
       AND A TOTAL OF          7 INNER ITERATIONS.
    ------------------------------------------------

 NO OUTPUT CONTROL FOR STRESS PERIOD   24   TIME STEP    5
 
 SOLVING FOR HEAD 
                                                   Max.-Head-Change                         Max.-Flux-Residual
  Residual-Control   Outer-Iter.   Inner-Iter.     Column Row Layer    Maximum-Head-Change  Column Row Layer    Maximum-Flux-Residual          L2-NORM 
          0                 1           2             4    7     1       0.4720284773E-01       4    7    1         0.2487019285E+01      0.5101575072E+01
          0                 2           2             4    7     1      -0.4591596672E-02       4    7    1        -0.2487051033E+00      0.5101558420E+00
          0                 3           2             4    7     1       0.3126702542E-03       4    7    1         0.1740933473E-01      0.3571059917E-01
          0                 4           1             4    7     1      -0.1244144419E-04       4    7    1        -0.7120429123E-03      0.1460547406E-02

    ------------------------------------------------
       NWT REQUIRED            4 OUTER ITERATIONS 
       AND A TOTAL OF          7 INNER ITERATIONS.
    ------------------------------------------------

 NO OUTPUT CONTROL FOR STRESS PERIOD   24   TIME STEP    6
 
 SOLVING FOR HEAD 
                                                   Max.-Head-Change                         Max.-Flux-Residual
  Residual-Control   Outer-Iter.   Inner-Iter.     Column Row Layer    Maximum-Head-Change  Column Row Layer    Maximum-Flux-Residual          L2-NORM 
          0                 1           2             4    7     1       0.4654969350E-01       4    7    1         0.2452560539E+01      0.5036125782E+01
          0                 2           2             4    7     1      -0.4528061426E-02       4    7    1        -0.2452591530E+00      0.5035872234E+00
          0                 3           2             4    7     1       0.3083437505E-03       4    7    1         0.1716811881E-01      0.3525079241E-01
          0                 4           1             4    7     1      -0.1226928860E-04       4    7    1        -0.7021771744E-03      0.1441741180E-02

    ------------------------------------------------
       NWT REQUIRED            4 OUTER ITERATIONS 
       AND A TOTAL OF          7 INNER ITERATIONS.
    ------------------------------------------------

 NO OUTPUT CONTROL FOR STRESS PERIOD   24   TIME STEP    7
 
 SOLVING FOR HEAD 
                                                   Max.-Head-Change                         Max.-Flux-Residual
  Residual-Control   Outer-Iter.   Inner-Iter.     Column Row Layer    Maximum-Head-Change  Column Row Layer    Maximum-Flux-Residual          L2-NORM 
          0                 1           2             4    7     1       0.4590653528E-01       4    7    1         0.2418622571E+01      0.4972092216E+01
          0                 2           2             4    7     1      -0.4465498284E-02       4    7    1        -0.2418652818E+00      0.4971883452E+00
          0                 3           2             4    7     1       0.3040834431E-03       4    7    1         0.1693054842E-01      0.3480291004E-01
          0                 4           1             4    7     1      -0.1209976700E-04       4    7    1        -0.6924605361E-03      0.1423429460E-02

    ------------------------------------------------
       NWT REQUIRED            4 OUTER ITERATIONS 
       AND A TOTAL OF          7 INNER ITERATIONS.
    ------------------------------------------------

 NO OUTPUT CONTROL FOR STRESS PERIOD   24   TIME STEP    8
 
 SOLVING FOR HEAD 
                                                   Max.-Head-Change                         Max.-Flux-Residual
  Residual-Control   Outer-Iter.   Inner-Iter.     Column Row Layer    Maximum-Head-Change  Column Row Layer    Maximum-Flux-Residual          L2-NORM 
          0                 1           2             4    7     1       0.4527344663E-01       4    7    1         0.2385210176E+01      0.4909428039E+01
          0                 2           2             4    7     1      -0.4403915280E-02       4    7    1        -0.2385239691E+00      0.4909416056E+00
          0                 3           2             4    7     1       0.2998898791E-03       4    7    1         0.1669665713E-01      0.3436565009E-01
          0                 4           1             4    7     1      -0.1193290083E-04       4    7    1        -0.6828943415E-03      0.1405545429E-02

    ------------------------------------------------
       NWT REQUIRED            4 OUTER ITERATIONS 
       AND A TOTAL OF          7 INNER ITERATIONS.
    ------------------------------------------------

 NO OUTPUT CONTROL FOR STRESS PERIOD   24   TIME STEP    9
 
 SOLVING FOR HEAD 
                                                   Max.-Head-Change                         Max.-Flux-Residual
  Residual-Control   Outer-Iter.   Inner-Iter.     Column Row Layer    Maximum-Head-Change  Column Row Layer    Maximum-Flux-Residual          L2-NORM 
          0                 1           2             4    7     1       0.4465021488E-01       4    7    1         0.2352312530E+01      0.4848114097E+01
          0                 2           2             4    7     1      -0.4343290769E-02       4    7    1        -0.2352341325E+00      0.4848102961E+00
          0                 3           2             4    7     1       0.2957615853E-03       4    7    1         0.1646636915E-01      0.3393646948E-01
          0                 4           1             4    7     1      -0.1176863239E-04       4    7    1        -0.6734755700E-03      0.1387997431E-02

    ------------------------------------------------
       NWT REQUIRED            4 OUTER ITERATIONS 
       AND A TOTAL OF          7 INNER ITERATIONS.
    ------------------------------------------------

 NO OUTPUT CONTROL FOR STRESS PERIOD   24   TIME STEP   10
 
 SOLVING FOR HEAD 
                                                   Max.-Head-Change                         Max.-Flux-Residual
  Residual-Control   Outer-Iter.   Inner-Iter.     Column Row Layer    Maximum-Head-Change  Column Row Layer    Maximum-Flux-Residual          L2-NORM 
          0                 1           2             4    7     1       0.4403689865E-01       4    7    1         0.2319933251E+01      0.4788073876E+01
          0                 2           2             4    7     1      -0.4283630787E-02       4    7    1        -0.2319961339E+00      0.4788063470E+00
          0                 3           2             4    7     1       0.2916989716E-03       4    7    1         0.1623970981E-01      0.3351618937E-01
          0                 4           1             4    7     1      -0.1160697736E-04       4    7    1        -0.6642051853E-03      0.1370788262E-02

    ------------------------------------------------
       NWT REQUIRED            4 OUTER ITERATIONS 
       AND A TOTAL OF          7 INNER ITERATIONS.
    ------------------------------------------------

 NO OUTPUT CONTROL FOR STRESS PERIOD   24   TIME STEP   11
 
 SOLVING FOR HEAD 
                                                   Max.-Head-Change                         Max.-Flux-Residual
  Residual-Control   Outer-Iter.   Inner-Iter.     Column Row Layer    Maximum-Head-Change  Column Row Layer    Maximum-Flux-Residual          L2-NORM 
          0                 1           2             4    7     1       0.4343340369E-01       4    7    1         0.2288068065E+01      0.4729261450E+01
          0                 2           2             4    7     1      -0.4224926165E-02       4    7    1        -0.2288095460E+00      0.4729251960E+00
          0                 3           2             4    7     1       0.2877014146E-03       4    7    1         0.1601664922E-01      0.3310454284E-01
          0                 4           1             4    7     1      -0.1144791039E-04       4    7    1        -0.6550819867E-03      0.1353974101E-02

    ------------------------------------------------
       NWT REQUIRED            4 OUTER ITERATIONS 
       AND A TOTAL OF          7 INNER ITERATIONS.
    ------------------------------------------------

 NO OUTPUT CONTROL FOR STRESS PERIOD   24   TIME STEP   12
 
 SOLVING FOR HEAD 
                                                   Max.-Head-Change                         Max.-Flux-Residual
  Residual-Control   Outer-Iter.   Inner-Iter.     Column Row Layer    Maximum-Head-Change  Column Row Layer    Maximum-Flux-Residual          L2-NORM 
          0                 1           2             4    7     1       0.4283963319E-01       4    7    1         0.2256712085E+01      0.4671647123E+01
          0                 2           2             4    7     1      -0.4167167488E-02       4    7    1        -0.2256738800E+00      0.4671638740E+00
          0                 3           2             4    7     1       0.2837682726E-03       4    7    1         0.1579715315E-01      0.3270124941E-01
          0                 4           1             4    7     1      -0.1129140719E-04       4    7    1        -0.6461045900E-03      0.1337471525E-02

    ------------------------------------------------
       NWT REQUIRED            4 OUTER ITERATIONS 
       AND A TOTAL OF          7 INNER ITERATIONS.
    ------------------------------------------------

 NO OUTPUT CONTROL FOR STRESS PERIOD   24   TIME STEP   13
 
 SOLVING FOR HEAD 
                                                   Max.-Head-Change                         Max.-Flux-Residual
  Residual-Control   Outer-Iter.   Inner-Iter.     Column Row Layer    Maximum-Head-Change  Column Row Layer    Maximum-Flux-Residual          L2-NORM 
          0                 1           2             4    7     1       0.4225547811E-01       4    7    1         0.2225860292E+01      0.4615187204E+01
          0                 2           2             4    7     1      -0.4110344150E-02       4    7    1        -0.2225886340E+00      0.4615178716E+00
          0                 3           2             4    7     1       0.2798988233E-03       4    7    1         0.1558118646E-01      0.3230601142E-01
          0                 4           1             4    7     1      -0.1113743796E-04       4    7    1        -0.6372715284E-03      0.1321299512E-02

    ------------------------------------------------
       NWT REQUIRED            4 OUTER ITERATIONS 
       AND A TOTAL OF          7 INNER ITERATIONS.
    ------------------------------------------------

 NO OUTPUT CONTROL FOR STRESS PERIOD   24   TIME STEP   14
 
 SOLVING FOR HEAD 
                                                   Max.-Head-Change                         Max.-Flux-Residual
  Residual-Control   Outer-Iter.   Inner-Iter.     Column Row Layer    Maximum-Head-Change  Column Row Layer    Maximum-Flux-Residual          L2-NORM 
          0                 1           2             4    7     1       0.4168096314E-01       4    7    1         0.2195514334E+01      0.4559861828E+01
          0                 2           2             4    7     1      -0.4054458552E-02       4    7    1        -0.2195539730E+00      0.4559853924E+00
          0                 3           2             4    7     1       0.2760932306E-03       4    7    1         0.1536876072E-01      0.3191877179E-01
          0                 4           1             4    7     1      -0.1098600982E-04       4    7    1        -0.6285832912E-03      0.1305458589E-02

    ------------------------------------------------
       NWT REQUIRED            4 OUTER ITERATIONS 
       AND A TOTAL OF          7 INNER ITERATIONS.
    ------------------------------------------------

 NO OUTPUT CONTROL FOR STRESS PERIOD   24   TIME STEP   15
 
 SOLVING FOR HEAD 
                                                   Max.-Head-Change                         Max.-Flux-Residual
  Residual-Control   Outer-Iter.   Inner-Iter.     Column Row Layer    Maximum-Head-Change  Column Row Layer    Maximum-Flux-Residual          L2-NORM 
          0                 1           2             4    7     1       0.4111569797E-01       4    7    1         0.2165653588E+01      0.4505620149E+01
          0                 2           2             4    7     1      -0.3999472726E-02       4    7    1        -0.2165678345E+00      0.4505612759E+00
          0                 3           2             4    7     1       0.2723489088E-03       4    7    1         0.1515973154E-01      0.3153908554E-01
          0                 4           1             4    7     1      -0.1083701939E-04       4    7    1        -0.6200339869E-03      0.1289940836E-02

    ------------------------------------------------
       NWT REQUIRED            4 OUTER ITERATIONS 
       AND A TOTAL OF          7 INNER ITERATIONS.
    ------------------------------------------------

 NO OUTPUT CONTROL FOR STRESS PERIOD   24   TIME STEP   16
 
 SOLVING FOR HEAD 
                                                   Max.-Head-Change                         Max.-Flux-Residual
  Residual-Control   Outer-Iter.   Inner-Iter.     Column Row Layer    Maximum-Head-Change  Column Row Layer    Maximum-Flux-Residual          L2-NORM 
          0                 1           2             4    7     1       0.4055997309E-01       4    7    1         0.2136294323E+01      0.4452449969E+01
          0                 2           2             4    7     1      -0.3945414932E-02       4    7    1        -0.2136318456E+00      0.4452442792E+00
          0                 3           2             4    7     1       0.2686677823E-03       4    7    1         0.1495421282E-01      0.3116690329E-01
          0                 4           1             4    7     1      -0.1069054381E-04       4    7    1        -0.6116282448E-03      0.1274707757E-02

    ------------------------------------------------
       NWT REQUIRED            4 OUTER ITERATIONS 
       AND A TOTAL OF          7 INNER ITERATIONS.
    ------------------------------------------------

 NO OUTPUT CONTROL FOR STRESS PERIOD   24   TIME STEP   17
 
 SOLVING FOR HEAD 
                                                   Max.-Head-Change                         Max.-Flux-Residual
  Residual-Control   Outer-Iter.   Inner-Iter.     Column Row Layer    Maximum-Head-Change  Column Row Layer    Maximum-Flux-Residual          L2-NORM 
          0                 1           2             4    7     1       0.4001338444E-01       4    7    1         0.2107415096E+01      0.4400311043E+01
          0                 2           2             4    7     1      -0.3892245865E-02       4    7    1        -0.2107438619E+00      0.4400304178E+00
          0                 3           2             4    7     1       0.2650471749E-03       4    7    1         0.1475205445E-01      0.3080193956E-01
          0                 4           1             4    7     1      -0.1054647682E-04       4    7    1        -0.6033599700E-03      0.1259790877E-02

    ------------------------------------------------
       NWT REQUIRED            4 OUTER ITERATIONS 
       AND A TOTAL OF          7 INNER ITERATIONS.
    ------------------------------------------------

 NO OUTPUT CONTROL FOR STRESS PERIOD   24   TIME STEP   18
 
 SOLVING FOR HEAD 
                                                   Max.-Head-Change                         Max.-Flux-Residual
  Residual-Control   Outer-Iter.   Inner-Iter.     Column Row Layer    Maximum-Head-Change  Column Row Layer    Maximum-Flux-Residual          L2-NORM 
          0                 1           2             4    7     1       0.3947593621E-01       4    7    1         0.2079016862E+01      0.4349172227E+01
          0                 2           2             4    7     1      -0.3839965931E-02       4    7    1        -0.2079039788E+00      0.4349165687E+00
          0                 3           2             4    7     1       0.2614871137E-03       4    7    1         0.1455326310E-01      0.3044398373E-01
          0                 4           1             4    7     1      -0.1040481852E-04       4    7    1        -0.5952293907E-03      0.1245147103E-02

    ------------------------------------------------
       NWT REQUIRED            4 OUTER ITERATIONS 
       AND A TOTAL OF          7 INNER ITERATIONS.
    ------------------------------------------------

 NO OUTPUT CONTROL FOR STRESS PERIOD   24   TIME STEP   19
 
 SOLVING FOR HEAD 
                                                   Max.-Head-Change                         Max.-Flux-Residual
  Residual-Control   Outer-Iter.   Inner-Iter.     Column Row Layer    Maximum-Head-Change  Column Row Layer    Maximum-Flux-Residual          L2-NORM 
          0                 1           2             4    7     1       0.3894749765E-01       4    7    1         0.2051092535E+01      0.4299011927E+01
          0                 2           2             4    7     1      -0.3788562413E-02       4    7    1        -0.2051114879E+00      0.4299005442E+00
          0                 3           2             4    7     1       0.2579867333E-03       4    7    1         0.1435778922E-01      0.3009285008E-01
          0                 4           1             4    7     1      -0.1026553496E-04       4    7    1        -0.5872344911E-03      0.1230794538E-02

    ------------------------------------------------
       NWT REQUIRED            4 OUTER ITERATIONS 
       AND A TOTAL OF          7 INNER ITERATIONS.
    ------------------------------------------------

 NO OUTPUT CONTROL FOR STRESS PERIOD   24   TIME STEP   20
 
 SOLVING FOR HEAD 
                                                   Max.-Head-Change                         Max.-Flux-Residual
  Residual-Control   Outer-Iter.   Inner-Iter.     Column Row Layer    Maximum-Head-Change  Column Row Layer    Maximum-Flux-Residual          L2-NORM 
          0                 1           2             4    7     1       0.3842793117E-01       4    7    1         0.2023635337E+01      0.4249806708E+01
          0                 2           2             4    7     1      -0.3738021906E-02       4    7    1        -0.2023657112E+00      0.4249645234E+00
          0                 3           2             4    7     1       0.2545451199E-03       4    7    1         0.1416558530E-01      0.2974735170E-01
          0                 4           1             4    7     1      -0.1012858976E-04       4    7    1        -0.5793733280E-03      0.1216662768E-02

    ------------------------------------------------
       NWT REQUIRED            4 OUTER ITERATIONS 
       AND A TOTAL OF          7 INNER ITERATIONS.
    ------------------------------------------------

 NO OUTPUT CONTROL FOR STRESS PERIOD   24   TIME STEP   21
 
 SOLVING FOR HEAD 
                                                   Max.-Head-Change                         Max.-Flux-Residual
  Residual-Control   Outer-Iter.   Inner-Iter.     Column Row Layer    Maximum-Head-Change  Column Row Layer    Maximum-Flux-Residual          L2-NORM 
          0                 1           2             4    7     1       0.3791709834E-01       4    7    1         0.1996638137E+01      0.4201534771E+01
          0                 2           2             4    7     1      -0.3688331007E-02       4    7    1        -0.1996659356E+00      0.4201528699E+00
          0                 3           2             4    7     1       0.2511613620E-03       4    7    1         0.1397660145E-01      0.2941052858E-01
          0                 4           1             4    7     1      -0.9993947113E-05       4    7    1        -0.5716438877E-03      0.1202883052E-02

    ------------------------------------------------
       NWT REQUIRED            4 OUTER ITERATIONS 
       AND A TOTAL OF          7 INNER ITERATIONS.
    ------------------------------------------------

 NO OUTPUT CONTROL FOR STRESS PERIOD   24   TIME STEP   22
 
 SOLVING FOR HEAD 
                                                   Max.-Head-Change                         Max.-Flux-Residual
  Residual-Control   Outer-Iter.   Inner-Iter.     Column Row Layer    Maximum-Head-Change  Column Row Layer    Maximum-Flux-Residual          L2-NORM 
          0                 1           2             4    7     1       0.3741499673E-01       4    7    1         0.1970101058E+01      0.4154173786E+01
          0                 2           2             4    7     1      -0.3639489415E-02       4    7    1        -0.1970121736E+00      0.4154167757E+00
          0                 3           2             4    7     1       0.2478354385E-03       4    7    1         0.1379083853E-01      0.2907900464E-01
          0                 4           1             4    7     1      -0.9861605403E-05       4    7    1        -0.5640461741E-03      0.1189322689E-02

    ------------------------------------------------
       NWT REQUIRED            4 OUTER ITERATIONS 
       AND A TOTAL OF          7 INNER ITERATIONS.
    ------------------------------------------------

 NO OUTPUT CONTROL FOR STRESS PERIOD   24   TIME STEP   23
 
 SOLVING FOR HEAD 
                                                   Max.-Head-Change                         Max.-Flux-Residual
  Residual-Control   Outer-Iter.   Inner-Iter.     Column Row Layer    Maximum-Head-Change  Column Row Layer    Maximum-Flux-Residual          L2-NORM 
          0                 1           2             4    7     1       0.3692134261E-01       4    7    1         0.1944009367E+01      0.4107686752E+01
          0                 2           2             4    7     1      -0.3591469555E-02       4    7    1        -0.1944029517E+00      0.4107680387E+00
          0                 3           2             4    7     1       0.2445654717E-03       4    7    1         0.1360819343E-01      0.2875355936E-01
          0                 4           1             4    7     1      -0.9731490377E-05       4    7    1        -0.5565759714E-03      0.1176014347E-02

    ------------------------------------------------
       NWT REQUIRED            4 OUTER ITERATIONS 
       AND A TOTAL OF          7 INNER ITERATIONS.
    ------------------------------------------------

 NO OUTPUT CONTROL FOR STRESS PERIOD   24   TIME STEP   24
 
 SOLVING FOR HEAD 
                                                   Max.-Head-Change                         Max.-Flux-Residual
  Residual-Control   Outer-Iter.   Inner-Iter.     Column Row Layer    Maximum-Head-Change  Column Row Layer    Maximum-Flux-Residual          L2-NORM 
          0                 1           2             4    7     1       0.3643613285E-01       4    7    1         0.1918362965E+01      0.4062057465E+01
          0                 2           2             4    7     1      -0.3544271119E-02       4    7    1        -0.1918382600E+00      0.4062051147E+00
          0                 3           2             4    7     1       0.2413514407E-03       4    7    1         0.1342866542E-01      0.2843419298E-01
          0                 4           1             4    7     1      -0.9603600767E-05       4    7    1        -0.5492332643E-03      0.1162951146E-02

    ------------------------------------------------
       NWT REQUIRED            4 OUTER ITERATIONS 
       AND A TOTAL OF          7 INNER ITERATIONS.
    ------------------------------------------------

 NO OUTPUT CONTROL FOR STRESS PERIOD   24   TIME STEP   25
 
 SOLVING FOR HEAD 
                                                   Max.-Head-Change                         Max.-Flux-Residual
  Residual-Control   Outer-Iter.   Inner-Iter.     Column Row Layer    Maximum-Head-Change  Column Row Layer    Maximum-Flux-Residual          L2-NORM 
          0                 1           2             4    7     1       0.3595922303E-01       4    7    1         0.1893154384E+01      0.4017263775E+01
          0                 2           2             4    7     1      -0.3497880060E-02       4    7    1        -0.1893173517E+00      0.4017257860E+00
          0                 3           2             4    7     1       0.2381923888E-03       4    7    1         0.1325220224E-01      0.2812066200E-01
          0                 4           1             4    7     1      -0.9477899272E-05       4    7    1        -0.5420159071E-03      0.1150118933E-02

    ------------------------------------------------
       NWT REQUIRED            4 OUTER ITERATIONS 
       AND A TOTAL OF          7 INNER ITERATIONS.
    ------------------------------------------------

 NO OUTPUT CONTROL FOR STRESS PERIOD   24   TIME STEP   26
 
 SOLVING FOR HEAD 
                                                   Max.-Head-Change                         Max.-Flux-Residual
  Residual-Control   Outer-Iter.   Inner-Iter.     Column Row Layer    Maximum-Head-Change  Column Row Layer    Maximum-Flux-Residual          L2-NORM 
          0                 1           2             4    7     1       0.3549046154E-01       4    7    1         0.1868376135E+01      0.3973277429E+01
          0                 2           2             4    7     1      -0.3452281631E-02       4    7    1        -0.1868394779E+00      0.3973271493E+00
          0                 3           2             4    7     1       0.2350873117E-03       4    7    1         0.1307875145E-01      0.2781274479E-01
          0                 4           1             4    7     1      -0.9354345482E-05       4    7    1        -0.5349217715E-03      0.1137538655E-02

    ------------------------------------------------
       NWT REQUIRED            4 OUTER ITERATIONS 
       AND A TOTAL OF          7 INNER ITERATIONS.
    ------------------------------------------------

 NO OUTPUT CONTROL FOR STRESS PERIOD   24   TIME STEP   27
 
 SOLVING FOR HEAD 
                                                   Max.-Head-Change                         Max.-Flux-Residual
  Residual-Control   Outer-Iter.   Inner-Iter.     Column Row Layer    Maximum-Head-Change  Column Row Layer    Maximum-Flux-Residual          L2-NORM 
          0                 1           2             4    7     1       0.3502957164E-01       4    7    1         0.1844013051E+01      0.3930075420E+01
          0                 2           2             4    7     1      -0.3407448911E-02       4    7    1        -0.1844031218E+00      0.3930069466E+00
          0                 3           2             4    7     1       0.2320343769E-03       4    7    1         0.1290820691E-01      0.2751034014E-01
          0                 4           1             4    7     1      -0.9232866753E-05       4    7    1        -0.5279465017E-03      0.1125169362E-02

    ------------------------------------------------
       NWT REQUIRED            4 OUTER ITERATIONS 
       AND A TOTAL OF          7 INNER ITERATIONS.
    ------------------------------------------------

 NO OUTPUT CONTROL FOR STRESS PERIOD   24   TIME STEP   28
 
 SOLVING FOR HEAD 
                                                   Max.-Head-Change                         Max.-Flux-Residual
  Residual-Control   Outer-Iter.   Inner-Iter.     Column Row Layer    Maximum-Head-Change  Column Row Layer    Maximum-Flux-Residual          L2-NORM 
          0                 1           2             4    7     1       0.3457668477E-01       4    7    1         0.1820072707E+01      0.3887654487E+01
          0                 2           2             4    7     1      -0.3363394685E-02       4    7    1        -0.1820090410E+00      0.3887648394E+00
          0                 3           2             4    7     1       0.2290344537E-03       4    7    1         0.1274062162E-01      0.2721337943E-01
          0                 4           1             4    7     1      -0.9113496470E-05       4    7    1        -0.5210922245E-03      0.1113019763E-02

    ------------------------------------------------
       NWT REQUIRED            4 OUTER ITERATIONS 
       AND A TOTAL OF          7 INNER ITERATIONS.
    ------------------------------------------------

 NO OUTPUT CONTROL FOR STRESS PERIOD   24   TIME STEP   29
 
 SOLVING FOR HEAD 
                                                   Max.-Head-Change                         Max.-Flux-Residual
  Residual-Control   Outer-Iter.   Inner-Iter.     Column Row Layer    Maximum-Head-Change  Column Row Layer    Maximum-Flux-Residual          L2-NORM 
          0                 1           2             4    7     1       0.3413151345E-01       4    7    1         0.1796539994E+01      0.3845978961E+01
          0                 2           2             4    7     1      -0.3320090990E-02       4    7    1        -0.1796557244E+00      0.3845972685E+00
          0                 3           2             4    7     1       0.2260856393E-03       4    7    1         0.1257588982E-01      0.2692165923E-01
          0                 4           1             4    7     1      -0.8996160377E-05       4    7    1        -0.5143546889E-03      0.1101105591E-02

    ------------------------------------------------
       NWT REQUIRED            4 OUTER ITERATIONS 
       AND A TOTAL OF          7 INNER ITERATIONS.
    ------------------------------------------------

 NO OUTPUT CONTROL FOR STRESS PERIOD   24   TIME STEP   30



 STREAM LISTING     PERIOD     24   STEP       30

 LAYER ROW COL. STREAM  RCH.  FLOW INTO     FLOW TO   FLOW OUT OF   OVRLND.     DIRECT     STREAM       STREAM     STREAM     STREAM   STREAMBED  STREAMBED
                SEG.NO.  NO.  STRM. RCH.    AQUIFER    STRM. RCH.    RUNOFF     PRECIP       ET          HEAD       DEPTH      WIDTH   CONDCTNC.   GRADIENT

   1    1    1     1     1    2.1000E+01  2.2592E-01   2.0774E+01  0.000E+00  0.000E+00  0.000E+00  1.09416E+03  1.115E+00  1.220E+01  5.490E-02  1.372E+00
   1    2    2     1     2    2.0774E+01  3.4917E-01   2.0425E+01  0.000E+00  0.000E+00  0.000E+00  1.08917E+03  1.110E+00  1.214E+01  8.495E-02  1.370E+00
   1    3    3     1     3    2.0425E+01  2.9709E-01   2.0128E+01  0.000E+00  0.000E+00  0.000E+00  1.08352E+03  1.105E+00  1.206E+01  7.238E-02  1.368E+00
   1    3    4     1     4    2.0128E+01  2.7299E-01   1.9855E+01  0.000E+00  0.000E+00  0.000E+00  1.07851E+03  1.100E+00  1.200E+01  6.659E-02  1.367E+00
   1    4    5     2     1    1.7855E+01  3.1056E-01   1.7545E+01  0.000E+00  0.000E+00  0.000E+00  1.07292E+03  9.816E-01  1.200E+01  7.800E-02  1.327E+00
   1    5    6     2     2    1.7545E+01  2.3835E-01   1.7306E+01  0.000E+00  0.000E+00  0.000E+00  1.06748E+03  9.724E-01  1.200E+01  6.000E-02  1.324E+00
   1    6    6     2     3    1.7306E+01  2.3787E-01   1.7068E+01  0.000E+00  0.000E+00  0.000E+00  1.06276E+03  9.644E-01  1.200E+01  6.000E-02  1.321E+00
   1    7    6     2     4    1.7068E+01  2.3738E-01   1.6831E+01  0.000E+00  0.000E+00  0.000E+00  1.05803E+03  9.564E-01  1.200E+01  6.000E-02  1.319E+00
   1    8    6     2     5    1.6831E+01  2.3690E-01   1.6594E+01  0.000E+00  0.000E+00  0.000E+00  1.05331E+03  9.484E-01  1.200E+01  6.000E-02  1.316E+00
   1    3    5     3     1    2.0000E+00  2.8252E-01   1.7175E+00  0.000E+00  0.000E+00  0.000E+00  1.07555E+03  1.909E+00  9.636E+00  7.227E-02  1.955E+00
   1    3    6     3     2    1.7175E+00  2.4905E-01   1.4684E+00  0.000E+00  0.000E+00  0.000E+00  1.07264E+03  1.727E+00  8.909E+00  6.682E-02  1.864E+00
   1    3    7     3     3    1.4684E+00  1.9718E-01   1.2712E+00  0.000E+00  0.000E+00  0.000E+00  1.06987E+03  1.555E+00  8.218E+00  5.547E-02  1.777E+00
   1    4    8     3     4    1.2712E+00  2.2567E-01   1.0456E+00  0.000E+00  0.000E+00  0.000E+00  1.06682E+03  1.364E+00  7.455E+00  6.709E-02  1.682E+00
   1    5    8     3     5    1.0456E+00  1.5790E-01   8.8768E-01  0.000E+00  0.000E+00  0.000E+00  1.06362E+03  1.164E+00  6.655E+00  4.991E-02  1.582E+00
   1    6    8     3     6    8.8768E-01  5.5980E-02   8.3170E-01  0.000E+00  0.000E+00  0.000E+00  1.06158E+03  1.036E+00  6.145E+00  1.844E-02  1.518E+00
   1    5   10     4     1    1.0000E+01  9.0919E-02   9.9091E+00  0.000E+00  0.000E+00  0.000E+00  1.07836E+03  6.368E-01  1.000E+01  2.500E-02  1.212E+00
   1    5    9     4     2    9.9091E+00  1.8158E-01   9.7275E+00  0.000E+00  0.000E+00  0.000E+00  1.07154E+03  6.315E-01  1.000E+01  5.000E-02  1.211E+00
   1    6    8     4     3    9.7275E+00  1.2689E-01   9.6006E+00  0.000E+00  0.000E+00  0.000E+00  1.06381E+03  6.256E-01  1.000E+01  3.500E-02  1.209E+00
   1    6    8     5     1    1.0432E+01  2.2686E-01   1.0205E+01  0.000E+00  0.000E+00  0.000E+00  1.05868E+03  6.790E-01  1.542E+01  6.166E-02  1.226E+00
   1    7    7     5     2    1.0205E+01  2.7894E-01   9.9265E+00  0.000E+00  0.000E+00  0.000E+00  1.05417E+03  6.732E-01  1.519E+01  7.594E-02  1.224E+00
   1    8    7     5     3    9.9265E+00  1.9221E-01   9.7343E+00  0.000E+00  0.000E+00  0.000E+00  1.04992E+03  6.676E-01  1.497E+01  5.241E-02  1.223E+00
   1    8    6     5     4    9.7343E+00  1.3577E-01   9.5985E+00  0.000E+00  0.000E+00  0.000E+00  1.04691E+03  6.637E-01  1.482E+01  3.706E-02  1.221E+00
   1    9    6     6     1    2.6193E+01  2.5512E-01   2.5938E+01  0.000E+00  0.000E+00  0.000E+00  1.04398E+03  1.252E+00  1.200E+01  6.000E-02  1.417E+00
   1   10    7     6     2    2.5938E+01  2.5468E-01   2.5683E+01  0.000E+00  0.000E+00  0.000E+00  1.03943E+03  1.245E+00  1.200E+01  6.000E-02  1.415E+00
   1   11    7     6     3    2.5683E+01  2.5424E-01   2.5429E+01  0.000E+00  0.000E+00  0.000E+00  1.03487E+03  1.237E+00  1.200E+01  6.000E-02  1.412E+00
   1   12    7     6     4    2.5429E+01  2.5379E-01   2.5175E+01  0.000E+00  0.000E+00  0.000E+00  1.03032E+03  1.230E+00  1.200E+01  6.000E-02  1.410E+00
   1   13    7     6     5    2.5175E+01  3.3454E-03   2.5171E+01  0.000E+00  0.000E+00  0.000E+00  1.02714E+03  1.226E+00  1.200E+01  2.400E-02  4.646E-02
   1   14    9     7     1    1.5000E+02  1.3361E+00   1.4866E+02  0.000E+00  0.000E+00  0.000E+00  1.03987E+03  2.288E+00  5.529E+01  5.593E-01  7.963E-01
   1   13    8     7     2    1.4866E+02  1.8491E+00   1.4681E+02  0.000E+00  0.000E+00  0.000E+00  1.03478E+03  2.279E+00  5.526E+01  6.148E-01  1.003E+00
   1   13    7     7     3    1.4681E+02  1.5043E+00   1.4531E+02  0.000E+00  0.000E+00  0.000E+00  1.02969E+03  2.270E+00  5.522E+01  5.584E-01  8.979E-01
   1   13    6     8     1    1.7048E+02  9.6225E-01   1.6952E+02  0.000E+00  0.000E+00  0.000E+00  1.02483E+03  2.952E+00  4.281E+01  4.362E-01  7.353E-01
   1   13    5     8     2    1.6952E+02  2.1984E-01   1.6930E+02  0.000E+00  0.000E+00  0.000E+00  1.01857E+03  2.948E+00  4.275E+01  4.356E-01  1.682E-01
   1   13    4     8     3    1.6930E+02 -2.2718E+00   1.7157E+02  0.000E+00  0.000E+00  0.000E+00  1.01233E+03  2.955E+00  4.285E+01  4.366E+00 -1.734E-01
   1   13    3     8     4    1.7157E+02 -3.5859E+00   1.7516E+02  0.000E+00  0.000E+00  0.000E+00  1.00610E+03  2.974E+00  4.312E+01  4.394E+00 -2.720E-01
   1   13    2     8     5    1.7516E+02 -2.5700E+00   1.7773E+02  0.000E+00  0.000E+00  0.000E+00  9.99869E+02  2.994E+00  4.341E+01  4.423E+00 -1.937E-01
   1   13    1     8     6    1.7773E+02 -1.9878E+00   1.7972E+02  0.000E+00  0.000E+00  0.000E+00  9.94883E+02  3.008E+00  4.362E+01  2.667E+00 -2.485E-01





UNSATURATED ZONE PACKAGE VOLUMETRIC BUDGET FOR  TIME STEP    30 STRESS PERIOD   24
  ------------------------------------------------------------------------------



     CUMULATIVE VOLUMES      L**3       RATES FOR THIS TIME STEP      L**3/T
     ------------------                 ------------------------

           IN:                                      IN:
           ---                                      ---
        INFILTRATION =  1062738291.2087          INFILTRATION =           4.4075

          OUT:                                     OUT:
          ----                                     ----
              UZF ET =   996571174.9789                UZF ET =           0.7250
        UZF RECHARGE =      797698.7981          UZF RECHARGE =       0.0000E+00

            IN - OUT =    65369417.4318              IN - OUT =           3.6825

          STORAGE:                                 STORAGE:
          --------                                 --------
      STORAGE CHANGE =    65370356.7113        STORAGE CHANGE =           3.6825

 PERCENT DISCREPANCY IS DIFFERENCE BETWEEN IN-OUT MINUS CHANGE IN STORAGE
 DIVIDED BY THE AVERAGE OF IN AND OUT TIMES 100

 PERCENT DISCREPANCY =          -0.00     PERCENT DISCREPANCY =           0.00






1
  VOLUMETRIC BUDGET FOR AGRICULTURAL FIELDS AT TIME STEP   30, STRESS PERIOD  24
  ------------------------------------------------------------------------------

     CUMULATIVE VOLUMES      L**3       RATES FOR THIS TIME STEP      L**3/T
     ------------------                 ------------------------

           IN:                                      IN:
           ---                                      ---
               AG WELLS  =   796055104.0000                 AG WELLS  =           0.0000
      DIVERSION SEGMENTS =           0.0000        DIVERSION SEGMENTS =           0.0000
           GW IRRIGATION =           0.0000             GW IRRIGATION =           0.0000
           SW IRRIGATION =           0.0000             SW IRRIGATION =           0.0000
        SYSTEM LOSSES GW =           0.0000          SYSTEM LOSSES GW =           0.0000
        SYSTEM LOSSES SW =           0.0000          SYSTEM LOSSES SW =           0.0000

                TOTAL IN =   796055104.0000                  TOTAL IN =           0.0000

          OUT:                                     OUT:
          ----                                     ----
               AG WELLS  =           0.0000                 AG WELLS  =           0.0000
      DIVERSION SEGMENTS =           0.0000        DIVERSION SEGMENTS =           0.0000
           GW IRRIGATION =   796055104.0000             GW IRRIGATION =           0.0000
           SW IRRIGATION =           0.0000             SW IRRIGATION =           0.0000
        SYSTEM LOSSES GW =           0.0000          SYSTEM LOSSES GW =           0.0000
        SYSTEM LOSSES SW =           0.0000          SYSTEM LOSSES SW =           0.0000

               TOTAL OUT =   796055104.0000                 TOTAL OUT =           0.0000

                IN - OUT =           0.0000                  IN - OUT =           0.0000

     PERCENT DISCREPANCY =           0.00         PERCENT DISCREPANCY =           0.00



1
  VOLUMETRIC BUDGET FOR ENTIRE MODEL AT END OF TIME STEP   30, STRESS PERIOD  24
  ------------------------------------------------------------------------------

     CUMULATIVE VOLUMES      L**3       RATES FOR THIS TIME STEP      L**3/T
     ------------------                 ------------------------

           IN:                                      IN:
           ---                                      ---
             STORAGE     =  1058244352.0000               STORAGE     =          10.2149
       CONSTANT HEAD     =           0.0000         CONSTANT HEAD     =           0.0000
     HEAD DEP BOUNDS     =    17291886.0000       HEAD DEP BOUNDS     =           0.2858
      STREAM LEAKAGE     =   753849408.0000        STREAM LEAKAGE     =          11.7005
        UZF RECHARGE     =      797698.6250          UZF RECHARGE     =           0.0000
               GW ET     =           0.0000                 GW ET     =           0.0000
     SURFACE LEAKAGE     =           0.0000       SURFACE LEAKAGE     =           0.0000
           AG WELLS      =           0.0000             AG WELLS      =           0.0000

                TOTAL IN =  1830183424.0000                  TOTAL IN =          22.2012

          OUT:                                     OUT:
          ----                                     ----
             STORAGE     =   369551648.0000               STORAGE     =          11.4958
       CONSTANT HEAD     =           0.0000         CONSTANT HEAD     =           0.0000
     HEAD DEP BOUNDS     =    17824258.0000       HEAD DEP BOUNDS     =           0.2899
      STREAM LEAKAGE     =   629410752.0000        STREAM LEAKAGE     =          10.4155
        UZF RECHARGE     =           0.0000          UZF RECHARGE     =           0.0000
               GW ET     =    17343536.0000                 GW ET     =           0.0000
     SURFACE LEAKAGE     =           0.0000       SURFACE LEAKAGE     =           0.0000
           AG WELLS      =   796055104.0000             AG WELLS      =           0.0000

               TOTAL OUT =  1830185344.0000                 TOTAL OUT =          22.2012

                IN - OUT =       -1920.0000                  IN - OUT =       9.5367E-06

     PERCENT DISCREPANCY =          -0.00         PERCENT DISCREPANCY =           0.00






         TIME SUMMARY AT END OF TIME STEP   30 IN STRESS PERIOD   24
                    SECONDS     MINUTES      HOURS       DAYS        YEARS
                    -----------------------------------------------------------
   TIME STEP LENGTH  87667.      1461.1      24.352      1.0147     2.77799E-03
 STRESS PERIOD TIME 2.63000E+06  43833.      730.56      30.440     8.33397E-02
         TOTAL TIME 6.05767E+07 1.00961E+06  16827.      701.12      1.9196    
1
1
                            STRESS PERIOD NO.   25, LENGTH =   2630000.    
                            -----------------------------------------------

                              NUMBER OF TIME STEPS =    30

                               MULTIPLIER FOR DELT =     1.000

                            INITIAL TIME STEP SIZE =   87666.66    

 REUSING NON-PARAMETER GHB CELLS FROM LAST STRESS PERIOD

      2 GHB CELLS

 REUSING STREAM SEGMENT DATA FROM LAST STRESS PERIOD



            AREAL INFILTRATION RATE
 READING ON UNIT   19 WITH FORMAT: (10F4.0)            

            1           2           3           4           5           6           7           8           9          10
 ........................................................................................................................
   1   1.2000E-09   0.000       0.000       0.000       0.000       0.000       0.000       0.000       0.000       0.000    
   2   2.1000E-09  2.0000E-09  8.0000E-10  8.5000E-09   0.000       0.000       0.000       0.000       0.000       0.000    
   3   5.0000E-10  1.1000E-09  8.8000E-09  5.5000E-09   0.000       0.000       0.000       0.000       0.000       0.000    
   4   8.5000E-09  1.1000E-09  1.1000E-09  1.1000E-09  2.0000E-09   0.000       0.000       0.000       0.000       0.000    
   5   8.5000E-09  1.1000E-09  1.1000E-09  1.1000E-09  1.1000E-09   0.000       0.000       0.000       0.000       0.000    
   6   8.5000E-09  5.2000E-09  2.1000E-09  1.1000E-09  1.5000E-09   0.000       0.000       0.000       0.000       0.000    
   7   8.5000E-09  5.2000E-09  2.1000E-09  1.2000E-09  2.0000E-09   0.000       0.000       0.000       0.000       0.000    
   8   5.0000E-10  5.2000E-09  2.1000E-09  1.2000E-09  5.0000E-09   0.000       0.000       0.000       0.000       0.000    
   9   5.0000E-10  5.2000E-09  2.1000E-09  1.2000E-09  5.0000E-09   0.000       0.000       0.000       0.000       0.000    
  10   5.0000E-10  5.2000E-09  2.1000E-09  1.2000E-09  5.8000E-09   0.000       0.000       0.000       0.000       0.000    
  11   1.0000E-10  1.1000E-09  1.1000E-09  1.2000E-09  5.0000E-09   0.000       0.000       0.000       0.000       0.000    
  12   1.1000E-09  1.1000E-09  1.1000E-09  1.1000E-09  2.0000E-09   0.000       0.000       0.000       0.000       0.000    
  13   1.1000E-09  2.2000E-09  2.2000E-09  2.1000E-09  1.0000E-09   0.000       0.000       0.000       0.000       0.000    
  14   2.0000E-10  5.5000E-09  5.5000E-09  5.2000E-09  1.0000E-09   0.000       0.000       0.000       0.000       0.000    
  15    0.000      8.8000E-09  8.8000E-09   0.000       0.000       0.000       0.000       0.000       0.000       0.000    

                  ET RATE =  5.000000E-10

 USING ET EXTINCTION DEPTH FROM PREVIOUS STRESS PERIOD. CURRENT PERIOD IS:      25

 USING EXTINCTION WATER CONTENT FROM PREVIOUS STRESS PERIOD. CURRENT PERIOD IS:      25

 USING AIR ENTRY PRESSURE FROM PREVIOUS STRESS PERIOD. CURRENT PERIOD IS:      25

 USING ROOT PRESSURE HEAD FROM PREVIOUS STRESS PERIOD. CURRENT PERIOD IS:      25

 USING ROOT ACTIVITY FROM PREVIOUS STRESS PERIOD. CURRENT PERIOD IS:      25

 PROCESSING AG STRESS PERIOD DATA

 READING AG STRESS PERIOD DATA

 READING IRRIGATION WELL

 END PROCESSING AG STRESS PERIOD DATA OPTIONS
 
 SOLVING FOR HEAD 
                                                   Max.-Head-Change                         Max.-Flux-Residual
  Residual-Control   Outer-Iter.   Inner-Iter.     Column Row Layer    Maximum-Head-Change  Column Row Layer    Maximum-Flux-Residual          L2-NORM 
          0                 1           2             4    7     1       0.3369390924E-01       4    7    1         0.1773407315E+01      0.3806463741E+01
          0                 2           2             4    7     1      -0.3277523385E-02       4    7    1        -0.1773424125E+00      0.3806433269E+00
          0                 3           2             4    7     1       0.2231869495E-03       4    7    1         0.1241395832E-01      0.2664465969E-01
          0                 4           1             4    7     1      -0.8880819100E-05       4    7    1        -0.5077316894E-03      0.1089740664E-02

    ------------------------------------------------
       NWT REQUIRED            4 OUTER ITERATIONS 
       AND A TOTAL OF          7 INNER ITERATIONS.
    ------------------------------------------------

 NO OUTPUT CONTROL FOR STRESS PERIOD   25   TIME STEP    1
 
 SOLVING FOR HEAD 
                                                   Max.-Head-Change                         Max.-Flux-Residual
  Residual-Control   Outer-Iter.   Inner-Iter.     Column Row Layer    Maximum-Head-Change  Column Row Layer    Maximum-Flux-Residual          L2-NORM 
          0                 1           2             4    7     1       0.3326386463E-01       4    7    1         0.1750674283E+01      0.3766797302E+01
          0                 2           2             4    7     1      -0.3235691141E-02       4    7    1        -0.1750690664E+00      0.3766757791E+00
          0                 3           2             4    7     1       0.2203383348E-03       4    7    1         0.1225482445E-01      0.2636682752E-01
          0                 4           1             4    7     1      -0.8767469530E-05       4    7    1        -0.5012230808E-03      0.1078363171E-02

    ------------------------------------------------
       NWT REQUIRED            4 OUTER ITERATIONS 
       AND A TOTAL OF          7 INNER ITERATIONS.
    ------------------------------------------------

 NO OUTPUT CONTROL FOR STRESS PERIOD   25   TIME STEP    2
 
 SOLVING FOR HEAD 
                                                   Max.-Head-Change                         Max.-Flux-Residual
  Residual-Control   Outer-Iter.   Inner-Iter.     Column Row Layer    Maximum-Head-Change  Column Row Layer    Maximum-Flux-Residual          L2-NORM 
          0                 1           2             4    7     1       0.3284123647E-01       4    7    1         0.1728333201E+01      0.3727224035E+01
          0                 2           2             4    7     1      -0.3194580332E-02       4    7    1        -0.1728349165E+00      0.3727187520E+00
          0                 3           2             4    7     1       0.2175388473E-03       4    7    1         0.1209843429E-01      0.2608988918E-01
          0                 4           1             4    7     1      -0.8656075288E-05       4    7    1        -0.4948267147E-03      0.1067043030E-02

    ------------------------------------------------
       NWT REQUIRED            4 OUTER ITERATIONS 
       AND A TOTAL OF          7 INNER ITERATIONS.
    ------------------------------------------------

 NO OUTPUT CONTROL FOR STRESS PERIOD   25   TIME STEP    3
 
 SOLVING FOR HEAD 
                                                   Max.-Head-Change                         Max.-Flux-Residual
  Residual-Control   Outer-Iter.   Inner-Iter.     Column Row Layer    Maximum-Head-Change  Column Row Layer    Maximum-Flux-Residual          L2-NORM 
          0                 1           2             4    7     1       0.3242574196E-01       4    7    1         0.1706369334E+01      0.3688328587E+01
          0                 2           2             4    7     1      -0.3154163448E-02       4    7    1        -0.1706384892E+00      0.3688294759E+00
          0                 3           2             4    7     1       0.2147866131E-03       4    7    1         0.1194468468E-01      0.2581767728E-01
          0                 4           1             4    7     1      -0.8546561309E-05       4    7    1        -0.4885383530E-03      0.1055924348E-02

    ------------------------------------------------
       NWT REQUIRED            4 OUTER ITERATIONS 
       AND A TOTAL OF          7 INNER ITERATIONS.
    ------------------------------------------------

 NO OUTPUT CONTROL FOR STRESS PERIOD   25   TIME STEP    4
 
 SOLVING FOR HEAD 
                                                   Max.-Head-Change                         Max.-Flux-Residual
  Residual-Control   Outer-Iter.   Inner-Iter.     Column Row Layer    Maximum-Head-Change  Column Row Layer    Maximum-Flux-Residual          L2-NORM 
          0                 1           2             4    7     1       0.3201738054E-01       4    7    1         0.1684782644E+01      0.3650105598E+01
          0                 2           2             4    7     1      -0.3114439391E-02       4    7    1        -0.1684797806E+00      0.3649703183E+00
          0                 3           2             4    7     1       0.2120815578E-03       4    7    1         0.1179357540E-01      0.2554755543E-01
          0                 4           1             4    7     1      -0.8438925177E-05       4    7    1        -0.4823579770E-03      0.1044906541E-02

    ------------------------------------------------
       NWT REQUIRED            4 OUTER ITERATIONS 
       AND A TOTAL OF          7 INNER ITERATIONS.
    ------------------------------------------------

 NO OUTPUT CONTROL FOR STRESS PERIOD   25   TIME STEP    5
 
 SOLVING FOR HEAD 
                                                   Max.-Head-Change                         Max.-Flux-Residual
  Residual-Control   Outer-Iter.   Inner-Iter.     Column Row Layer    Maximum-Head-Change  Column Row Layer    Maximum-Flux-Residual          L2-NORM 
          0                 1           2             4    7     1       0.3161601898E-01       4    7    1         0.1663565844E+01      0.3612556965E+01
          0                 2           2             4    7     1      -0.3075398336E-02       4    7    1        -0.1663580622E+00      0.3612528132E+00
          0                 3           2             4    7     1       0.2094230120E-03       4    7    1         0.1164505539E-01      0.2528735180E-01
          0                 4           1             4    7     1      -0.8333138684E-05       4    7    1        -0.4762834953E-03      0.1034224178E-02

    ------------------------------------------------
       NWT REQUIRED            4 OUTER ITERATIONS 
       AND A TOTAL OF          7 INNER ITERATIONS.
    ------------------------------------------------

 NO OUTPUT CONTROL FOR STRESS PERIOD   25   TIME STEP    6
 
 SOLVING FOR HEAD 
                                                   Max.-Head-Change                         Max.-Flux-Residual
  Residual-Control   Outer-Iter.   Inner-Iter.     Column Row Layer    Maximum-Head-Change  Column Row Layer    Maximum-Flux-Residual          L2-NORM 
          0                 1           2             4    7     1       0.3122138544E-01       4    7    1         0.1642704548E+01      0.3575741112E+01
          0                 2           2             4    7     1      -0.3037010703E-02       4    7    1        -0.1642718951E+00      0.3575713731E+00
          0                 3           2             4    7     1       0.2068089621E-03       4    7    1         0.1149902400E-01      0.2502966394E-01
          0                 4           1             4    7     1      -0.8229123315E-05       4    7    1        -0.4703107984E-03      0.1023701622E-02

    ------------------------------------------------
       NWT REQUIRED            4 OUTER ITERATIONS 
       AND A TOTAL OF          7 INNER ITERATIONS.
    ------------------------------------------------

 NO OUTPUT CONTROL FOR STRESS PERIOD   25   TIME STEP    7
 
 SOLVING FOR HEAD 
                                                   Max.-Head-Change                         Max.-Flux-Residual
  Residual-Control   Outer-Iter.   Inner-Iter.     Column Row Layer    Maximum-Head-Change  Column Row Layer    Maximum-Flux-Residual          L2-NORM 
          0                 1           2             4    7     1       0.3083362305E-01       4    7    1         0.1622206768E+01      0.3539546201E+01
          0                 2           2             4    7     1      -0.2999291459E-02       4    7    1        -0.1622220805E+00      0.3539520555E+00
          0                 3           2             4    7     1       0.2042404266E-03       4    7    1         0.1135553727E-01      0.2477634706E-01
          0                 4           1             4    7     1      -0.8126918558E-05       4    7    1        -0.4644421790E-03      0.1013340315E-02

    ------------------------------------------------
       NWT REQUIRED            4 OUTER ITERATIONS 
       AND A TOTAL OF          7 INNER ITERATIONS.
    ------------------------------------------------

 NO OUTPUT CONTROL FOR STRESS PERIOD   25   TIME STEP    8
 
 SOLVING FOR HEAD 
                                                   Max.-Head-Change                         Max.-Flux-Residual
  Residual-Control   Outer-Iter.   Inner-Iter.     Column Row Layer    Maximum-Head-Change  Column Row Layer    Maximum-Flux-Residual          L2-NORM 
          0                 1           2             4    7     1       0.3045259599E-01       4    7    1         0.1602065243E+01      0.3503958839E+01
          0                 2           2             4    7     1      -0.2962227394E-02       4    7    1        -0.1602078926E+00      0.3503934532E+00
          0                 3           2             4    7     1       0.2017165065E-03       4    7    1         0.1121454439E-01      0.2452724513E-01
          0                 4           1             4    7     1      -0.8026489874E-05       4    7    1        -0.4586755717E-03      0.1003122307E-02

    ------------------------------------------------
       NWT REQUIRED            4 OUTER ITERATIONS 
       AND A TOTAL OF          7 INNER ITERATIONS.
    ------------------------------------------------

 NO OUTPUT CONTROL FOR STRESS PERIOD   25   TIME STEP    9
 
 SOLVING FOR HEAD 
                                                   Max.-Head-Change                         Max.-Flux-Residual
  Residual-Control   Outer-Iter.   Inner-Iter.     Column Row Layer    Maximum-Head-Change  Column Row Layer    Maximum-Flux-Residual          L2-NORM 
          0                 1           2             4    7     1       0.3007789445E-01       4    7    1         0.1582258302E+01      0.3468944568E+01
          0                 2           2             4    7     1      -0.2925778642E-02       4    7    1        -0.1582271640E+00      0.3468921706E+00
          0                 3           2             4    7     1       0.1992344861E-03       4    7    1         0.1107589363E-01      0.2428216515E-01
          0                 4           1             4    7     1      -0.7927727432E-05       4    7    1        -0.4530047286E-03      0.9931328226E-03

    ------------------------------------------------
       NWT REQUIRED            4 OUTER ITERATIONS 
       AND A TOTAL OF          7 INNER ITERATIONS.
    ------------------------------------------------

 NO OUTPUT CONTROL FOR STRESS PERIOD   25   TIME STEP   10
 
 SOLVING FOR HEAD 
                                                   Max.-Head-Change                         Max.-Flux-Residual
  Residual-Control   Outer-Iter.   Inner-Iter.     Column Row Layer    Maximum-Head-Change  Column Row Layer    Maximum-Flux-Residual          L2-NORM 
          0                 1           2             4    7     1       0.2970966722E-01       4    7    1         0.1562793956E+01      0.3434513730E+01
          0                 2           2             4    7     1      -0.2889959687E-02       4    7    1        -0.1562806957E+00      0.3434491804E+00
          0                 3           2             4    7     1       0.1967953525E-03       4    7    1         0.1093964112E-01      0.2404117723E-01
          0                 4           1             4    7     1      -0.7830672447E-05       4    7    1        -0.4474320215E-03      0.9832822999E-03

    ------------------------------------------------
       NWT REQUIRED            4 OUTER ITERATIONS 
       AND A TOTAL OF          7 INNER ITERATIONS.
    ------------------------------------------------

 NO OUTPUT CONTROL FOR STRESS PERIOD   25   TIME STEP   11
 
 SOLVING FOR HEAD 
                                                   Max.-Head-Change                         Max.-Flux-Residual
  Residual-Control   Outer-Iter.   Inner-Iter.     Column Row Layer    Maximum-Head-Change  Column Row Layer    Maximum-Flux-Residual          L2-NORM 
          0                 1           2             4    7     1       0.2934778341E-01       4    7    1         0.1543665290E+01      0.3400651595E+01
          0                 2           2             4    7     1      -0.2854757861E-02       4    7    1        -0.1543677964E+00      0.3400631538E+00
          0                 3           2             4    7     1       0.1943982427E-03       4    7    1         0.1080573842E-01      0.2380414278E-01
          0                 4           1             4    7     1      -0.7735288769E-05       4    7    1        -0.4419553561E-03      0.9735685194E-03

    ------------------------------------------------
       NWT REQUIRED            4 OUTER ITERATIONS 
       AND A TOTAL OF          7 INNER ITERATIONS.
    ------------------------------------------------

 NO OUTPUT CONTROL FOR STRESS PERIOD   25   TIME STEP   12
 
 SOLVING FOR HEAD 
                                                   Max.-Head-Change                         Max.-Flux-Residual
  Residual-Control   Outer-Iter.   Inner-Iter.     Column Row Layer    Maximum-Head-Change  Column Row Layer    Maximum-Flux-Residual          L2-NORM 
          0                 1           2             4    7     1       0.2899197317E-01       4    7    1         0.1524858197E+01      0.3367328529E+01
          0                 2           2             4    7     1      -0.2820146756E-02       4    7    1        -0.1524870554E+00      0.3367309340E+00
          0                 3           2             4    7     1       0.1920413600E-03       4    7    1         0.1067408679E-01      0.2357090538E-01
          0                 4           1             4    7     1      -0.7641506632E-05       4    7    1        -0.4365708276E-03      0.9640161563E-03

    ------------------------------------------------
       NWT REQUIRED            4 OUTER ITERATIONS 
       AND A TOTAL OF          7 INNER ITERATIONS.
    ------------------------------------------------

 NO OUTPUT CONTROL FOR STRESS PERIOD   25   TIME STEP   13
 
 SOLVING FOR HEAD 
                                                   Max.-Head-Change                         Max.-Flux-Residual
  Residual-Control   Outer-Iter.   Inner-Iter.     Column Row Layer    Maximum-Head-Change  Column Row Layer    Maximum-Flux-Residual          L2-NORM 
          0                 1           2             4    7     1       0.2864224577E-01       4    7    1         0.1506373328E+01      0.3334542248E+01
          0                 2           2             4    7     1      -0.2786127358E-02       4    7    1        -0.1506385375E+00      0.3334523677E+00
          0                 3           2             4    7     1       0.1897247696E-03       4    7    1         0.1054469078E-01      0.2334140336E-01
          0                 4           1             4    7     1      -0.7549327186E-05       4    7    1        -0.4312785161E-03      0.9546422303E-03

    ------------------------------------------------
       NWT REQUIRED            4 OUTER ITERATIONS 
       AND A TOTAL OF          7 INNER ITERATIONS.
    ------------------------------------------------

 NO OUTPUT CONTROL FOR STRESS PERIOD   25   TIME STEP   14
 
 SOLVING FOR HEAD 
                                                   Max.-Head-Change                         Max.-Flux-Residual
  Residual-Control   Outer-Iter.   Inner-Iter.     Column Row Layer    Maximum-Head-Change  Column Row Layer    Maximum-Flux-Residual          L2-NORM 
          0                 1           2             4    7     1       0.2829834424E-01       4    7    1         0.1488196524E+01      0.3302285199E+01
          0                 2           2             4    7     1      -0.2752674670E-02       4    7    1        -0.1488208270E+00      0.3302267211E+00
          0                 3           2             4    7     1       0.1874467696E-03       4    7    1         0.1041745126E-01      0.2311563446E-01
          0                 4           1             4    7     1      -0.7458683312E-05       4    7    1        -0.4260744063E-03      0.9454132190E-03

    ------------------------------------------------
       NWT REQUIRED            4 OUTER ITERATIONS 
       AND A TOTAL OF          7 INNER ITERATIONS.
    ------------------------------------------------

 NO OUTPUT CONTROL FOR STRESS PERIOD   25   TIME STEP   15
 
 SOLVING FOR HEAD 
                                                   Max.-Head-Change                         Max.-Flux-Residual
  Residual-Control   Outer-Iter.   Inner-Iter.     Column Row Layer    Maximum-Head-Change  Column Row Layer    Maximum-Flux-Residual          L2-NORM 
          0                 1           2             4    7     1       0.2796041685E-01       4    7    1         0.1470336414E+01      0.3270540816E+01
          0                 2           2             4    7     1      -0.2719803117E-02       4    7    1        -0.1470347868E+00      0.3270523806E+00
          0                 3           2             4    7     1       0.1852083431E-03       4    7    1         0.1029242868E-01      0.2289342281E-01
          0                 4           1             4    7     1      -0.7369614268E-05       4    7    1        -0.4209609740E-03      0.9363220689E-03

    ------------------------------------------------
       NWT REQUIRED            4 OUTER ITERATIONS 
       AND A TOTAL OF          7 INNER ITERATIONS.
    ------------------------------------------------

 NO OUTPUT CONTROL FOR STRESS PERIOD   25   TIME STEP   16
 
 SOLVING FOR HEAD 
                                                   Max.-Head-Change                         Max.-Flux-Residual
  Residual-Control   Outer-Iter.   Inner-Iter.     Column Row Layer    Maximum-Head-Change  Column Row Layer    Maximum-Flux-Residual          L2-NORM 
          0                 1           2             4    7     1       0.2762806362E-01       4    7    1         0.1452771418E+01      0.3239292749E+01
          0                 2           2             4    7     1      -0.2687473789E-02       4    7    1        -0.1452782587E+00      0.3239276316E+00
          0                 3           2             4    7     1       0.1830068398E-03       4    7    1         0.1016947193E-01      0.2267474075E-01
          0                 4           1             4    7     1      -0.7282014253E-05       4    7    1        -0.4159320299E-03      0.9273970902E-03

    ------------------------------------------------
       NWT REQUIRED            4 OUTER ITERATIONS 
       AND A TOTAL OF          7 INNER ITERATIONS.
    ------------------------------------------------

 NO OUTPUT CONTROL FOR STRESS PERIOD   25   TIME STEP   17
 
 SOLVING FOR HEAD 
                                                   Max.-Head-Change                         Max.-Flux-Residual
  Residual-Control   Outer-Iter.   Inner-Iter.     Column Row Layer    Maximum-Head-Change  Column Row Layer    Maximum-Flux-Residual          L2-NORM 
          0                 1           2             4    7     1       0.2730144135E-01       4    7    1         0.1435510066E+01      0.3208545429E+01
          0                 2           2             4    7     1      -0.2655701939E-02       4    7    1        -0.1435520958E+00      0.3208529218E+00
          0                 3           2             4    7     1       0.1808432986E-03       4    7    1         0.1004864073E-01      0.2245948715E-01
          0                 4           1             4    7     1      -0.7195925057E-05       4    7    1        -0.4109900310E-03      0.9185798515E-03

    ------------------------------------------------
       NWT REQUIRED            4 OUTER ITERATIONS 
       AND A TOTAL OF          7 INNER ITERATIONS.
    ------------------------------------------------

 NO OUTPUT CONTROL FOR STRESS PERIOD   25   TIME STEP   18
 
 SOLVING FOR HEAD 
                                                   Max.-Head-Change                         Max.-Flux-Residual
  Residual-Control   Outer-Iter.   Inner-Iter.     Column Row Layer    Maximum-Head-Change  Column Row Layer    Maximum-Flux-Residual          L2-NORM 
          0                 1           2             4    7     1       0.2698015491E-01       4    7    1         0.1418531216E+01      0.3178267883E+01
          0                 2           2             4    7     1      -0.2624449131E-02       4    7    1        -0.1418541839E+00      0.3178252065E+00
          0                 3           2             4    7     1       0.1787151020E-03       4    7    1         0.9929787113E-02      0.2224754558E-01
          0                 4           1             4    7     1      -0.7111241684E-05       4    7    1        -0.4061288969E-03      0.9099036233E-03

    ------------------------------------------------
       NWT REQUIRED            4 OUTER ITERATIONS 
       AND A TOTAL OF          7 INNER ITERATIONS.
    ------------------------------------------------

 NO OUTPUT CONTROL FOR STRESS PERIOD   25   TIME STEP   19
 
 SOLVING FOR HEAD 
                                                   Max.-Head-Change                         Max.-Flux-Residual
  Residual-Control   Outer-Iter.   Inner-Iter.     Column Row Layer    Maximum-Head-Change  Column Row Layer    Maximum-Flux-Residual          L2-NORM 
          0                 1           2             4    7     1       0.2666436344E-01       4    7    1         0.1401843657E+01      0.3148462532E+01
          0                 2           2             4    7     1      -0.2593730844E-02       4    7    1        -0.1401854018E+00      0.3148447066E+00
          0                 3           2             4    7     1       0.1766233046E-03       4    7    1         0.9812972560E-02      0.2203893117E-01
          0                 4           1             4    7     1      -0.7028007307E-05       4    7    1        -0.4013511880E-03      0.9013813319E-03

    ------------------------------------------------
       NWT REQUIRED            4 OUTER ITERATIONS 
       AND A TOTAL OF          7 INNER ITERATIONS.
    ------------------------------------------------

 NO OUTPUT CONTROL FOR STRESS PERIOD   25   TIME STEP   20
 
 SOLVING FOR HEAD 
                                                   Max.-Head-Change                         Max.-Flux-Residual
  Residual-Control   Outer-Iter.   Inner-Iter.     Column Row Layer    Maximum-Head-Change  Column Row Layer    Maximum-Flux-Residual          L2-NORM 
          0                 1           2             4    7     1       0.2635381187E-01       4    7    1         0.1385433681E+01      0.3119120828E+01
          0                 2           2             4    7     1      -0.2563522267E-02       4    7    1        -0.1385443788E+00      0.3119105749E+00
          0                 3           2             4    7     1       0.1745662160E-03       4    7    1         0.9698101137E-02      0.2183354440E-01
          0                 4           1             4    7     1      -0.6946153655E-05       4    7    1        -0.3966529282E-03      0.8929720920E-03

    ------------------------------------------------
       NWT REQUIRED            4 OUTER ITERATIONS 
       AND A TOTAL OF          7 INNER ITERATIONS.
    ------------------------------------------------

 NO OUTPUT CONTROL FOR STRESS PERIOD   25   TIME STEP   21
 
 SOLVING FOR HEAD 
                                                   Max.-Head-Change                         Max.-Flux-Residual
  Residual-Control   Outer-Iter.   Inner-Iter.     Column Row Layer    Maximum-Head-Change  Column Row Layer    Maximum-Flux-Residual          L2-NORM 
          0                 1           2             4    7     1       0.2604852797E-01       4    7    1         0.1369302705E+01      0.3090232726E+01
          0                 2           2             4    7     1      -0.2533826101E-02       4    7    1        -0.1369312564E+00      0.3090217710E+00
          0                 3           2             4    7     1       0.1725440209E-03       4    7    1         0.9585182751E-02      0.2163142342E-01
          0                 4           1             4    7     1      -0.6865689018E-05       4    7    1        -0.3920345694E-03      0.8848660063E-03

    ------------------------------------------------
       NWT REQUIRED            4 OUTER ITERATIONS 
       AND A TOTAL OF          7 INNER ITERATIONS.
    ------------------------------------------------

 NO OUTPUT CONTROL FOR STRESS PERIOD   25   TIME STEP   22
 
 SOLVING FOR HEAD 
                                                   Max.-Head-Change                         Max.-Flux-Residual
  Residual-Control   Outer-Iter.   Inner-Iter.     Column Row Layer    Maximum-Head-Change  Column Row Layer    Maximum-Flux-Residual          L2-NORM 
          0                 1           2             4    7     1       0.2574825726E-01       4    7    1         0.1353437527E+01      0.3061779509E+01
          0                 2           2             4    7     1      -0.2504617593E-02       4    7    1        -0.1353447145E+00      0.3061764693E+00
          0                 3           2             4    7     1       0.1705550336E-03       4    7    1         0.9474125019E-02      0.2143213534E-01
          0                 4           1             4    7     1      -0.6786545355E-05       4    7    1        -0.3874923027E-03      0.8765596423E-03

    ------------------------------------------------
       NWT REQUIRED            4 OUTER ITERATIONS 
       AND A TOTAL OF          7 INNER ITERATIONS.
    ------------------------------------------------

 NO OUTPUT CONTROL FOR STRESS PERIOD   25   TIME STEP   23
 
 SOLVING FOR HEAD 
                                                   Max.-Head-Change                         Max.-Flux-Residual
  Residual-Control   Outer-Iter.   Inner-Iter.     Column Row Layer    Maximum-Head-Change  Column Row Layer    Maximum-Flux-Residual          L2-NORM 
          0                 1           2             4    7     1       0.2545289520E-01       4    7    1         0.1337832273E+01      0.3033758031E+01
          0                 2           2             4    7     1      -0.2475886571E-02       4    7    1        -0.1337841657E+00      0.3033743466E+00
          0                 3           2             4    7     1       0.1685985605E-03       4    7    1         0.9364886763E-02      0.2123601527E-01
          0                 4           1             4    7     1      -0.6708695266E-05       4    7    1        -0.3830244423E-03      0.8685552103E-03

    ------------------------------------------------
       NWT REQUIRED            4 OUTER ITERATIONS 
       AND A TOTAL OF          7 INNER ITERATIONS.
    ------------------------------------------------

 NO OUTPUT CONTROL FOR STRESS PERIOD   25   TIME STEP   24
 
 SOLVING FOR HEAD 
                                                   Max.-Head-Change                         Max.-Flux-Residual
  Residual-Control   Outer-Iter.   Inner-Iter.     Column Row Layer    Maximum-Head-Change  Column Row Layer    Maximum-Flux-Residual          L2-NORM 
          0                 1           2             4    7     1       0.2516260497E-01       4    7    1         0.1322496165E+01      0.3006165118E+01
          0                 2           2             4    7     1      -0.2447648911E-02       4    7    1        -0.1322505322E+00      0.3006150824E+00
          0                 3           2             4    7     1       0.1666756840E-03       4    7    1         0.9257532593E-02      0.2104286735E-01
          0                 4           1             4    7     1      -0.6632182039E-05       4    7    1        -0.3786336529E-03      0.8606511178E-03

    ------------------------------------------------
       NWT REQUIRED            4 OUTER ITERATIONS 
       AND A TOTAL OF          7 INNER ITERATIONS.
    ------------------------------------------------

 NO OUTPUT CONTROL FOR STRESS PERIOD   25   TIME STEP   25
 
 SOLVING FOR HEAD 
                                                   Max.-Head-Change                         Max.-Flux-Residual
  Residual-Control   Outer-Iter.   Inner-Iter.     Column Row Layer    Maximum-Head-Change  Column Row Layer    Maximum-Flux-Residual          L2-NORM 
          0                 1           2             4    7     1       0.2487687059E-01       4    7    1         0.1307401059E+01      0.2978979487E+01
          0                 2           2             4    7     1      -0.2419854419E-02       4    7    1        -0.1307409994E+00      0.2978965339E+00
          0                 3           2             4    7     1       0.1647829850E-03       4    7    1         0.9151865454E-02      0.2085258951E-01
          0                 4           1             4    7     1      -0.6556869707E-05       4    7    1        -0.3743118464E-03      0.8528629871E-03

    ------------------------------------------------
       NWT REQUIRED            4 OUTER ITERATIONS 
       AND A TOTAL OF          7 INNER ITERATIONS.
    ------------------------------------------------

 NO OUTPUT CONTROL FOR STRESS PERIOD   25   TIME STEP   26
 
 SOLVING FOR HEAD 
                                                   Max.-Head-Change                         Max.-Flux-Residual
  Residual-Control   Outer-Iter.   Inner-Iter.     Column Row Layer    Maximum-Head-Change  Column Row Layer    Maximum-Flux-Residual          L2-NORM 
          0                 1           2             4    7     1       0.2459600423E-01       4    7    1         0.1292564130E+01      0.2952204757E+01
          0                 2           2             4    7     1      -0.2392533461E-02       4    7    1        -0.1292572849E+00      0.2952190802E+00
          0                 3           2             4    7     1       0.1629225325E-03       4    7    1         0.9048005603E-02      0.2066511017E-01
          0                 4           1             4    7     1      -0.6482840588E-05       4    7    1        -0.3700639834E-03      0.8451649135E-03

    ------------------------------------------------
       NWT REQUIRED            4 OUTER ITERATIONS 
       AND A TOTAL OF          7 INNER ITERATIONS.
    ------------------------------------------------

 NO OUTPUT CONTROL FOR STRESS PERIOD   25   TIME STEP   27
 
 SOLVING FOR HEAD 
                                                   Max.-Head-Change                         Max.-Flux-Residual
  Residual-Control   Outer-Iter.   Inner-Iter.     Column Row Layer    Maximum-Head-Change  Column Row Layer    Maximum-Flux-Residual          L2-NORM 
          0                 1           2             4    7     1       0.2431962434E-01       4    7    1         0.1277964954E+01      0.2925824550E+01
          0                 2           2             4    7     1      -0.2365648923E-02       4    7    1        -0.1277973463E+00      0.2925810649E+00
          0                 3           2             4    7     1       0.1610917981E-03       4    7    1         0.8945810057E-02      0.2048050340E-01
          0                 4           1             4    7     1      -0.6409994174E-05       4    7    1        -0.3658841813E-03      0.8376509640E-03

    ------------------------------------------------
       NWT REQUIRED            4 OUTER ITERATIONS 
       AND A TOTAL OF          7 INNER ITERATIONS.
    ------------------------------------------------

 NO OUTPUT CONTROL FOR STRESS PERIOD   25   TIME STEP   28
 
 SOLVING FOR HEAD 
                                                   Max.-Head-Change                         Max.-Flux-Residual
  Residual-Control   Outer-Iter.   Inner-Iter.     Column Row Layer    Maximum-Head-Change  Column Row Layer    Maximum-Flux-Residual          L2-NORM 
          0                 1           2             4    7     1       0.2404777266E-01       4    7    1         0.1263605715E+01      0.2899835326E+01
          0                 2           2             4    7     1      -0.2339204866E-02       4    7    1        -0.1263614021E+00      0.2899821506E+00
          0                 3           2             4    7     1       0.1592910587E-03       4    7    1         0.8845294103E-02      0.2029857185E-01
          0                 4           1             4    7     1      -0.6338340828E-05       4    7    1        -0.3617730702E-03      0.8301983167E-03

    ------------------------------------------------
       NWT REQUIRED            4 OUTER ITERATIONS 
       AND A TOTAL OF          7 INNER ITERATIONS.
    ------------------------------------------------

 NO OUTPUT CONTROL FOR STRESS PERIOD   25   TIME STEP   29
 
 SOLVING FOR HEAD 
                                                   Max.-Head-Change                         Max.-Flux-Residual
  Residual-Control   Outer-Iter.   Inner-Iter.     Column Row Layer    Maximum-Head-Change  Column Row Layer    Maximum-Flux-Residual          L2-NORM 
          0                 1           2             4    7     1       0.2378047316E-01       4    7    1         0.1249488580E+01      0.2877999532E+01
          0                 2           2             4    7     1      -0.2313203620E-02       4    7    1        -0.1249496687E+00      0.2877906244E+00
          0                 3           2             4    7     1       0.1575204733E-03       4    7    1         0.8746472918E-02      0.2014444968E-01
          0                 4           1             4    7     1      -0.6267887687E-05       4    7    1        -0.3577312852E-03      0.8238702279E-03

    ------------------------------------------------
       NWT REQUIRED            4 OUTER ITERATIONS 
       AND A TOTAL OF          7 INNER ITERATIONS.
    ------------------------------------------------

 NO OUTPUT CONTROL FOR STRESS PERIOD   25   TIME STEP   30



 STREAM LISTING     PERIOD     25   STEP       30

 LAYER ROW COL. STREAM  RCH.  FLOW INTO     FLOW TO   FLOW OUT OF   OVRLND.     DIRECT     STREAM       STREAM     STREAM     STREAM   STREAMBED  STREAMBED
                SEG.NO.  NO.  STRM. RCH.    AQUIFER    STRM. RCH.    RUNOFF     PRECIP       ET          HEAD       DEPTH      WIDTH   CONDCTNC.   GRADIENT

   1    1    1     1     1    1.8461E+01  2.1075E-01   1.8250E+01  0.000E+00  0.000E+00  0.000E+00  1.09412E+03  1.073E+00  1.150E+01  5.174E-02  1.358E+00
   1    2    2     1     2    1.8250E+01  3.2508E-01   1.7925E+01  0.000E+00  0.000E+00  0.000E+00  1.08913E+03  1.068E+00  1.141E+01  7.990E-02  1.356E+00
   1    3    3     1     3    1.7925E+01  2.7598E-01   1.7649E+01  0.000E+00  0.000E+00  0.000E+00  1.08348E+03  1.063E+00  1.132E+01  6.792E-02  1.354E+00
   1    3    4     1     4    1.7649E+01  2.5310E-01   1.7396E+01  0.000E+00  0.000E+00  0.000E+00  1.07847E+03  1.059E+00  1.124E+01  6.236E-02  1.353E+00
   1    4    5     2     1    1.5396E+01  3.0400E-01   1.5092E+01  0.000E+00  0.000E+00  0.000E+00  1.07283E+03  8.974E-01  1.200E+01  7.800E-02  1.299E+00
   1    5    6     2     2    1.5092E+01  2.3327E-01   1.4859E+01  0.000E+00  0.000E+00  0.000E+00  1.06740E+03  8.879E-01  1.200E+01  6.000E-02  1.296E+00
   1    6    6     2     3    1.4859E+01  2.3278E-01   1.4626E+01  0.000E+00  0.000E+00  0.000E+00  1.06267E+03  8.796E-01  1.200E+01  6.000E-02  1.293E+00
   1    7    6     2     4    1.4626E+01  2.3227E-01   1.4394E+01  0.000E+00  0.000E+00  0.000E+00  1.05795E+03  8.712E-01  1.200E+01  6.000E-02  1.290E+00
   1    8    6     2     5    1.4394E+01  2.3177E-01   1.4162E+01  0.000E+00  0.000E+00  0.000E+00  1.05322E+03  8.629E-01  1.200E+01  6.000E-02  1.288E+00
   1    3    5     3     1    2.0000E+00  2.8252E-01   1.7175E+00  0.000E+00  0.000E+00  0.000E+00  1.07555E+03  1.909E+00  9.636E+00  7.227E-02  1.955E+00
   1    3    6     3     2    1.7175E+00  2.4905E-01   1.4684E+00  0.000E+00  0.000E+00  0.000E+00  1.07264E+03  1.727E+00  8.909E+00  6.682E-02  1.864E+00
   1    3    7     3     3    1.4684E+00  1.9718E-01   1.2712E+00  0.000E+00  0.000E+00  0.000E+00  1.06987E+03  1.555E+00  8.218E+00  5.547E-02  1.777E+00
   1    4    8     3     4    1.2712E+00  2.2567E-01   1.0456E+00  0.000E+00  0.000E+00  0.000E+00  1.06682E+03  1.364E+00  7.455E+00  6.709E-02  1.682E+00
   1    5    8     3     5    1.0456E+00  1.5790E-01   8.8768E-01  0.000E+00  0.000E+00  0.000E+00  1.06362E+03  1.164E+00  6.655E+00  4.991E-02  1.582E+00
   1    6    8     3     6    8.8768E-01  5.5980E-02   8.3170E-01  0.000E+00  0.000E+00  0.000E+00  1.06158E+03  1.036E+00  6.145E+00  1.844E-02  1.518E+00
   1    5   10     4     1    1.0000E+01  9.0919E-02   9.9091E+00  0.000E+00  0.000E+00  0.000E+00  1.07836E+03  6.368E-01  1.000E+01  2.500E-02  1.212E+00
   1    5    9     4     2    9.9091E+00  1.8158E-01   9.7275E+00  0.000E+00  0.000E+00  0.000E+00  1.07154E+03  6.315E-01  1.000E+01  5.000E-02  1.211E+00
   1    6    8     4     3    9.7275E+00  1.2689E-01   9.6006E+00  0.000E+00  0.000E+00  0.000E+00  1.06381E+03  6.256E-01  1.000E+01  3.500E-02  1.209E+00
   1    6    8     5     1    1.0432E+01  2.2686E-01   1.0205E+01  0.000E+00  0.000E+00  0.000E+00  1.05868E+03  6.790E-01  1.542E+01  6.166E-02  1.226E+00
   1    7    7     5     2    1.0205E+01  2.7894E-01   9.9265E+00  0.000E+00  0.000E+00  0.000E+00  1.05417E+03  6.732E-01  1.519E+01  7.594E-02  1.224E+00
   1    8    7     5     3    9.9265E+00  1.9221E-01   9.7343E+00  0.000E+00  0.000E+00  0.000E+00  1.04992E+03  6.676E-01  1.497E+01  5.241E-02  1.223E+00
   1    8    6     5     4    9.7343E+00  1.3577E-01   9.5985E+00  0.000E+00  0.000E+00  0.000E+00  1.04691E+03  6.637E-01  1.482E+01  3.706E-02  1.221E+00
   1    9    6     6     1    2.3760E+01  2.5084E-01   2.3510E+01  0.000E+00  0.000E+00  0.000E+00  1.04391E+03  1.181E+00  1.200E+01  6.000E-02  1.394E+00
   1   10    7     6     2    2.3510E+01  2.5038E-01   2.3259E+01  0.000E+00  0.000E+00  0.000E+00  1.03935E+03  1.173E+00  1.200E+01  6.000E-02  1.391E+00
   1   11    7     6     3    2.3259E+01  2.4993E-01   2.3009E+01  0.000E+00  0.000E+00  0.000E+00  1.03480E+03  1.166E+00  1.200E+01  6.000E-02  1.389E+00
   1   12    7     6     4    2.3009E+01  2.4948E-01   2.2760E+01  0.000E+00  0.000E+00  0.000E+00  1.03025E+03  1.158E+00  1.200E+01  6.000E-02  1.386E+00
   1   13    7     6     5    2.2760E+01  2.3095E-03   2.2757E+01  0.000E+00  0.000E+00  0.000E+00  1.02706E+03  1.154E+00  1.200E+01  2.400E-02  3.208E-02
   1   14    9     7     1    1.5000E+02  1.3373E+00   1.4866E+02  0.000E+00  0.000E+00  0.000E+00  1.03987E+03  2.288E+00  5.529E+01  5.593E-01  7.970E-01
   1   13    8     7     2    1.4866E+02  1.8559E+00   1.4681E+02  0.000E+00  0.000E+00  0.000E+00  1.03478E+03  2.279E+00  5.526E+01  6.148E-01  1.006E+00
   1   13    7     7     3    1.4681E+02  1.5204E+00   1.4529E+02  0.000E+00  0.000E+00  0.000E+00  1.02969E+03  2.270E+00  5.522E+01  5.584E-01  9.075E-01
   1   13    6     8     1    1.6804E+02  9.6822E-01   1.6708E+02  0.000E+00  0.000E+00  0.000E+00  1.02481E+03  2.936E+00  4.258E+01  4.339E-01  7.439E-01
   1   13    5     8     2    1.6708E+02  2.2954E-01   1.6685E+02  0.000E+00  0.000E+00  0.000E+00  1.01856E+03  2.932E+00  4.252E+01  4.333E-01  1.766E-01
   1   13    4     8     3    1.6685E+02 -2.2515E+00   1.6910E+02  0.000E+00  0.000E+00  0.000E+00  1.01231E+03  2.939E+00  4.261E+01  4.343E+00 -1.728E-01
   1   13    3     8     4    1.6910E+02 -3.5870E+00   1.7268E+02  0.000E+00  0.000E+00  0.000E+00  1.00608E+03  2.958E+00  4.289E+01  4.371E+00 -2.736E-01
   1   13    2     8     5    1.7268E+02 -2.5932E+00   1.7528E+02  0.000E+00  0.000E+00  0.000E+00  9.99853E+02  2.978E+00  4.318E+01  4.400E+00 -1.964E-01
   1   13    1     8     6    1.7528E+02 -2.0009E+00   1.7728E+02  0.000E+00  0.000E+00  0.000E+00  9.94868E+02  2.993E+00  4.339E+01  2.653E+00 -2.514E-01





UNSATURATED ZONE PACKAGE VOLUMETRIC BUDGET FOR  TIME STEP    30 STRESS PERIOD   25
  ------------------------------------------------------------------------------



     CUMULATIVE VOLUMES      L**3       RATES FOR THIS TIME STEP      L**3/T
     ------------------                 ------------------------

           IN:                                      IN:
           ---                                      ---
        INFILTRATION =  1074330015.7668          INFILTRATION =           4.4075

          OUT:                                     OUT:
          ----                                     ----
              UZF ET =   998477924.8409                UZF ET =           0.7250
        UZF RECHARGE =      797698.7981          UZF RECHARGE =       0.0000E+00

            IN - OUT =    75054392.1278              IN - OUT =           3.6825

          STORAGE:                                 STORAGE:
          --------                                 --------
      STORAGE CHANGE =    75055331.3422        STORAGE CHANGE =           3.6825

 PERCENT DISCREPANCY IS DIFFERENCE BETWEEN IN-OUT MINUS CHANGE IN STORAGE
 DIVIDED BY THE AVERAGE OF IN AND OUT TIMES 100

 PERCENT DISCREPANCY =          -0.00     PERCENT DISCREPANCY =           0.00






1
  VOLUMETRIC BUDGET FOR AGRICULTURAL FIELDS AT TIME STEP   30, STRESS PERIOD  25
  ------------------------------------------------------------------------------

     CUMULATIVE VOLUMES      L**3       RATES FOR THIS TIME STEP      L**3/T
     ------------------                 ------------------------

           IN:                                      IN:
           ---                                      ---
               AG WELLS  =   796055104.0000                 AG WELLS  =           0.0000
      DIVERSION SEGMENTS =           0.0000        DIVERSION SEGMENTS =           0.0000
           GW IRRIGATION =           0.0000             GW IRRIGATION =           0.0000
           SW IRRIGATION =           0.0000             SW IRRIGATION =           0.0000
        SYSTEM LOSSES GW =           0.0000          SYSTEM LOSSES GW =           0.0000
        SYSTEM LOSSES SW =           0.0000          SYSTEM LOSSES SW =           0.0000

                TOTAL IN =   796055104.0000                  TOTAL IN =           0.0000

          OUT:                                     OUT:
          ----                                     ----
               AG WELLS  =           0.0000                 AG WELLS  =           0.0000
      DIVERSION SEGMENTS =           0.0000        DIVERSION SEGMENTS =           0.0000
           GW IRRIGATION =   796055104.0000             GW IRRIGATION =           0.0000
           SW IRRIGATION =           0.0000             SW IRRIGATION =           0.0000
        SYSTEM LOSSES GW =           0.0000          SYSTEM LOSSES GW =           0.0000
        SYSTEM LOSSES SW =           0.0000          SYSTEM LOSSES SW =           0.0000

               TOTAL OUT =   796055104.0000                 TOTAL OUT =           0.0000

                IN - OUT =           0.0000                  IN - OUT =           0.0000

     PERCENT DISCREPANCY =           0.00         PERCENT DISCREPANCY =           0.00



1
  VOLUMETRIC BUDGET FOR ENTIRE MODEL AT END OF TIME STEP   30, STRESS PERIOD  25
  ------------------------------------------------------------------------------

     CUMULATIVE VOLUMES      L**3       RATES FOR THIS TIME STEP      L**3/T
     ------------------                 ------------------------

           IN:                                      IN:
           ---                                      ---
             STORAGE     =  1082048768.0000               STORAGE     =           8.1669
       CONSTANT HEAD     =           0.0000         CONSTANT HEAD     =           0.0000
     HEAD DEP BOUNDS     =    18043592.0000       HEAD DEP BOUNDS     =           0.2859
      STREAM LEAKAGE     =   784552256.0000        STREAM LEAKAGE     =          11.6147
        UZF RECHARGE     =      797698.6250          UZF RECHARGE     =           0.0000
               GW ET     =           0.0000                 GW ET     =           0.0000
     SURFACE LEAKAGE     =           0.0000       SURFACE LEAKAGE     =           0.0000
           AG WELLS      =           0.0000             AG WELLS      =           0.0000

                TOTAL IN =  1885442304.0000                  TOTAL IN =          20.0675

          OUT:                                     OUT:
          ----                                     ----
             STORAGE     =   396704800.0000               STORAGE     =           9.3453
       CONSTANT HEAD     =           0.0000         CONSTANT HEAD     =           0.0000
     HEAD DEP BOUNDS     =    18586254.0000       HEAD DEP BOUNDS     =           0.2896
      STREAM LEAKAGE     =   656754240.0000        STREAM LEAKAGE     =          10.4325
        UZF RECHARGE     =           0.0000          UZF RECHARGE     =           0.0000
               GW ET     =    17343536.0000                 GW ET     =           0.0000
     SURFACE LEAKAGE     =           0.0000       SURFACE LEAKAGE     =           0.0000
           AG WELLS      =   796055104.0000             AG WELLS      =           0.0000

               TOTAL OUT =  1885443840.0000                 TOTAL OUT =          20.0675

                IN - OUT =       -1536.0000                  IN - OUT =       9.5367E-06

     PERCENT DISCREPANCY =          -0.00         PERCENT DISCREPANCY =           0.00






         TIME SUMMARY AT END OF TIME STEP   30 IN STRESS PERIOD   25
                    SECONDS     MINUTES      HOURS       DAYS        YEARS
                    -----------------------------------------------------------
   TIME STEP LENGTH  87667.      1461.1      24.352      1.0147     2.77799E-03
 STRESS PERIOD TIME 2.63000E+06  43833.      730.56      30.440     8.33397E-02
         TOTAL TIME 6.32067E+07 1.05345E+06  17557.      731.56      2.0029    
1
1
                            STRESS PERIOD NO.   26, LENGTH =   2630000.    
                            -----------------------------------------------

                              NUMBER OF TIME STEPS =    30

                               MULTIPLIER FOR DELT =     1.000

                            INITIAL TIME STEP SIZE =   87666.66    

 REUSING NON-PARAMETER GHB CELLS FROM LAST STRESS PERIOD

      2 GHB CELLS

 REUSING STREAM SEGMENT DATA FROM LAST STRESS PERIOD



            AREAL INFILTRATION RATE
 READING ON UNIT   19 WITH FORMAT: (10F4.0)            

            1           2           3           4           5           6           7           8           9          10
 ........................................................................................................................
   1   1.2000E-09   0.000       0.000       0.000       0.000       0.000       0.000       0.000       0.000       0.000    
   2   2.1000E-09  2.0000E-09  8.0000E-10  8.5000E-09   0.000       0.000       0.000       0.000       0.000       0.000    
   3   5.0000E-10  1.1000E-09  8.8000E-09  5.5000E-09   0.000       0.000       0.000       0.000       0.000       0.000    
   4   8.5000E-09  1.1000E-09  1.1000E-09  1.1000E-09  2.0000E-09   0.000       0.000       0.000       0.000       0.000    
   5   8.5000E-09  1.1000E-09  1.1000E-09  1.1000E-09  1.1000E-09   0.000       0.000       0.000       0.000       0.000    
   6   8.5000E-09  5.2000E-09  2.1000E-09  1.1000E-09  1.5000E-09   0.000       0.000       0.000       0.000       0.000    
   7   8.5000E-09  5.2000E-09  2.1000E-09  1.2000E-09  2.0000E-09   0.000       0.000       0.000       0.000       0.000    
   8   5.0000E-10  5.2000E-09  2.1000E-09  1.2000E-09  5.0000E-09   0.000       0.000       0.000       0.000       0.000    
   9   5.0000E-10  5.2000E-09  2.1000E-09  1.2000E-09  5.0000E-09   0.000       0.000       0.000       0.000       0.000    
  10   5.0000E-10  5.2000E-09  2.1000E-09  1.2000E-09  5.8000E-09   0.000       0.000       0.000       0.000       0.000    
  11   1.0000E-10  1.1000E-09  1.1000E-09  1.2000E-09  5.0000E-09   0.000       0.000       0.000       0.000       0.000    
  12   1.1000E-09  1.1000E-09  1.1000E-09  1.1000E-09  2.0000E-09   0.000       0.000       0.000       0.000       0.000    
  13   1.1000E-09  2.2000E-09  2.2000E-09  2.1000E-09  1.0000E-09   0.000       0.000       0.000       0.000       0.000    
  14   2.0000E-10  5.5000E-09  5.5000E-09  5.2000E-09  1.0000E-09   0.000       0.000       0.000       0.000       0.000    
  15    0.000      8.8000E-09  8.8000E-09   0.000       0.000       0.000       0.000       0.000       0.000       0.000    

                  ET RATE =  5.000000E-10

 USING ET EXTINCTION DEPTH FROM PREVIOUS STRESS PERIOD. CURRENT PERIOD IS:      26

 USING EXTINCTION WATER CONTENT FROM PREVIOUS STRESS PERIOD. CURRENT PERIOD IS:      26

 USING AIR ENTRY PRESSURE FROM PREVIOUS STRESS PERIOD. CURRENT PERIOD IS:      26

 USING ROOT PRESSURE HEAD FROM PREVIOUS STRESS PERIOD. CURRENT PERIOD IS:      26

 USING ROOT ACTIVITY FROM PREVIOUS STRESS PERIOD. CURRENT PERIOD IS:      26

 PROCESSING AG STRESS PERIOD DATA

 READING AG STRESS PERIOD DATA

 READING IRRIGATION WELL

 END PROCESSING AG STRESS PERIOD DATA OPTIONS
 
 SOLVING FOR HEAD 
                                                   Max.-Head-Change                         Max.-Flux-Residual
  Residual-Control   Outer-Iter.   Inner-Iter.     Column Row Layer    Maximum-Head-Change  Column Row Layer    Maximum-Flux-Residual          L2-NORM 
          0                 1           2             4    7     1       0.2351735824E-01       4    7    1         0.1235592821E+01      0.2851178294E+01
          0                 2           2             4    7     1      -0.2287609428E-02       4    7    1        -0.1235600735E+00      0.2851126538E+00
          0                 3           2             4    7     1       0.1557776069E-03       4    7    1         0.8649201416E-02      0.1995735084E-01
          0                 4           1             4    7     1      -0.6198537584E-05       4    7    1        -0.3537528810E-03      0.8162278997E-03

    ------------------------------------------------
       NWT REQUIRED            4 OUTER ITERATIONS 
       AND A TOTAL OF          7 INNER ITERATIONS.
    ------------------------------------------------

 NO OUTPUT CONTROL FOR STRESS PERIOD   26   TIME STEP    1
 
 SOLVING FOR HEAD 
                                                   Max.-Head-Change                         Max.-Flux-Residual
  Residual-Control   Outer-Iter.   Inner-Iter.     Column Row Layer    Maximum-Head-Change  Column Row Layer    Maximum-Flux-Residual          L2-NORM 
          0                 1           2             4    7     1       0.2325847733E-01       4    7    1         0.1221921347E+01      0.2826249049E+01
          0                 2           2             4    7     1      -0.2262427096E-02       4    7    1        -0.1221929074E+00      0.2826200915E+00
          0                 3           2             4    7     1       0.1540627859E-03       4    7    1         0.8553499905E-02      0.1978291734E-01
          0                 4           1             4    7     1      -0.6130303182E-05       4    7    1        -0.3498386768E-03      0.8091074194E-03

    ------------------------------------------------
       NWT REQUIRED            4 OUTER ITERATIONS 
       AND A TOTAL OF          7 INNER ITERATIONS.
    ------------------------------------------------

 NO OUTPUT CONTROL FOR STRESS PERIOD   26   TIME STEP    2
 
 SOLVING FOR HEAD 
                                                   Max.-Head-Change                         Max.-Flux-Residual
  Residual-Control   Outer-Iter.   Inner-Iter.     Column Row Layer    Maximum-Head-Change  Column Row Layer    Maximum-Flux-Residual          L2-NORM 
          0                 1           2             4    7     1       0.2300387009E-01       4    7    1         0.1208476723E+01      0.2801689266E+01
          0                 2           2             4    7     1      -0.2237660484E-02       4    7    1        -0.1208484267E+00      0.2801643605E+00
          0                 3           2             4    7     1       0.1523762738E-03       4    7    1         0.8459386394E-02      0.1961104401E-01
          0                 4           1             4    7     1      -0.6063195188E-05       4    7    1        -0.3459894140E-03      0.8020825936E-03

    ------------------------------------------------
       NWT REQUIRED            4 OUTER ITERATIONS 
       AND A TOTAL OF          7 INNER ITERATIONS.
    ------------------------------------------------

 NO OUTPUT CONTROL FOR STRESS PERIOD   26   TIME STEP    3
 
 SOLVING FOR HEAD 
                                                   Max.-Head-Change                         Max.-Flux-Residual
  Residual-Control   Outer-Iter.   Inner-Iter.     Column Row Layer    Maximum-Head-Change  Column Row Layer    Maximum-Flux-Residual          L2-NORM 
          0                 1           2             4    7     1       0.2275317834E-01       4    7    1         0.1195239033E+01      0.2777484352E+01
          0                 2           2             4    7     1      -0.2213274748E-02       4    7    1        -0.1195246399E+00      0.2777445002E+00
          0                 3           2             4    7     1       0.1507156983E-03       4    7    1         0.8366721431E-02      0.1944165296E-01
          0                 4           1             4    7     1      -0.5997119199E-05       4    7    1        -0.3421994238E-03      0.7951404413E-03

    ------------------------------------------------
       NWT REQUIRED            4 OUTER ITERATIONS 
       AND A TOTAL OF          7 INNER ITERATIONS.
    ------------------------------------------------

 NO OUTPUT CONTROL FOR STRESS PERIOD   26   TIME STEP    4
 
 SOLVING FOR HEAD 
                                                   Max.-Head-Change                         Max.-Flux-Residual
  Residual-Control   Outer-Iter.   Inner-Iter.     Column Row Layer    Maximum-Head-Change  Column Row Layer    Maximum-Flux-Residual          L2-NORM 
          0                 1           2             4    7     1       0.2250658828E-01       4    7    1         0.1182219002E+01      0.2753630444E+01
          0                 2           2             4    7     1      -0.2189288004E-02       4    7    1        -0.1182226196E+00      0.2753590616E+00
          0                 3           2             4    7     1       0.1490822923E-03       4    7    1         0.8275580143E-02      0.1927471990E-01
          0                 4           1             4    7     1      -0.5932124257E-05       4    7    1        -0.3384717227E-03      0.7883098115E-03

    ------------------------------------------------
       NWT REQUIRED            4 OUTER ITERATIONS 
       AND A TOTAL OF          7 INNER ITERATIONS.
    ------------------------------------------------

 NO OUTPUT CONTROL FOR STRESS PERIOD   26   TIME STEP    5
 
 SOLVING FOR HEAD 
                                                   Max.-Head-Change                         Max.-Flux-Residual
  Residual-Control   Outer-Iter.   Inner-Iter.     Column Row Layer    Maximum-Head-Change  Column Row Layer    Maximum-Flux-Residual          L2-NORM 
          0                 1           2             4    7     1       0.2226387327E-01       4    7    1         0.1169404313E+01      0.2730116965E+01
          0                 2           2             4    7     1      -0.2165678306E-02       4    7    1        -0.1169411338E+00      0.2730184567E+00
          0                 3           2             4    7     1       0.1474745619E-03       4    7    1         0.8185876267E-02      0.1911093452E-01
          0                 4           1             4    7     1      -0.5868151304E-05       4    7    1        -0.3348028299E-03      0.7816229528E-03

    ------------------------------------------------
       NWT REQUIRED            4 OUTER ITERATIONS 
       AND A TOTAL OF          7 INNER ITERATIONS.
    ------------------------------------------------

 NO OUTPUT CONTROL FOR STRESS PERIOD   26   TIME STEP    6
 
 SOLVING FOR HEAD 
                                                   Max.-Head-Change                         Max.-Flux-Residual
  Residual-Control   Outer-Iter.   Inner-Iter.     Column Row Layer    Maximum-Head-Change  Column Row Layer    Maximum-Flux-Residual          L2-NORM 
          0                 1           2             4    7     1       0.2202508156E-01       4    7    1         0.1156797858E+01      0.2706924236E+01
          0                 2           2             4    7     1      -0.2142450038E-02       4    7    1        -0.1156804720E+00      0.2706889396E+00
          0                 3           2             4    7     1       0.1458928052E-03       4    7    1         0.8097630041E-02      0.1894789784E-01
          0                 4           1             4    7     1      -0.5805211505E-05       4    7    1        -0.3311935529E-03      0.7749548612E-03

    ------------------------------------------------
       NWT REQUIRED            4 OUTER ITERATIONS 
       AND A TOTAL OF          7 INNER ITERATIONS.
    ------------------------------------------------

 NO OUTPUT CONTROL FOR STRESS PERIOD   26   TIME STEP    7
 
 SOLVING FOR HEAD 
                                                   Max.-Head-Change                         Max.-Flux-Residual
  Residual-Control   Outer-Iter.   Inner-Iter.     Column Row Layer    Maximum-Head-Change  Column Row Layer    Maximum-Flux-Residual          L2-NORM 
          0                 1           2             4    7     1       0.2178999731E-01       4    7    1         0.1144387504E+01      0.2684034331E+01
          0                 2           2             4    7     1      -0.2119582515E-02       4    7    1        -0.1144394206E+00      0.2684001030E+00
          0                 3           2             4    7     1       0.1443356144E-03       4    7    1         0.8010756570E-02      0.1878767543E-01
          0                 4           1             4    7     1      -0.5743249831E-05       4    7    1        -0.3276404420E-03      0.7683877632E-03

    ------------------------------------------------
       NWT REQUIRED            4 OUTER ITERATIONS 
       AND A TOTAL OF          7 INNER ITERATIONS.
    ------------------------------------------------

 NO OUTPUT CONTROL FOR STRESS PERIOD   26   TIME STEP    8
 
 SOLVING FOR HEAD 
                                                   Max.-Head-Change                         Max.-Flux-Residual
  Residual-Control   Outer-Iter.   Inner-Iter.     Column Row Layer    Maximum-Head-Change  Column Row Layer    Maximum-Flux-Residual          L2-NORM 
          0                 1           2             4    7     1       0.2155854031E-01       4    7    1         0.1132169369E+01      0.2661453960E+01
          0                 2           2             4    7     1      -0.2097067831E-02       4    7    1        -0.1132175917E+00      0.2661422289E+00
          0                 3           2             4    7     1       0.1428024498E-03       4    7    1         0.7925228641E-02      0.1862962189E-01
          0                 4           1             4    7     1      -0.5682243485E-05       4    7    1        -0.3241423351E-03      0.7619371503E-03

    ------------------------------------------------
       NWT REQUIRED            4 OUTER ITERATIONS 
       AND A TOTAL OF          7 INNER ITERATIONS.
    ------------------------------------------------

 NO OUTPUT CONTROL FOR STRESS PERIOD   26   TIME STEP    9
 
 SOLVING FOR HEAD 
                                                   Max.-Head-Change                         Max.-Flux-Residual
  Residual-Control   Outer-Iter.   Inner-Iter.     Column Row Layer    Maximum-Head-Change  Column Row Layer    Maximum-Flux-Residual          L2-NORM 
          0                 1           2             4    7     1       0.2133090166E-01       4    7    1         0.1120153955E+01      0.2639200939E+01
          0                 2           2             4    7     1      -0.2074924574E-02       4    7    1        -0.1120160352E+00      0.2639170746E+00
          0                 3           2             4    7     1       0.1412945781E-03       4    7    1         0.7841119786E-02      0.1847388663E-01
          0                 4           1             4    7     1      -0.5622243930E-05       4    7    1        -0.3207022683E-03      0.7555635460E-03

    ------------------------------------------------
       NWT REQUIRED            4 OUTER ITERATIONS 
       AND A TOTAL OF          7 INNER ITERATIONS.
    ------------------------------------------------

 NO OUTPUT CONTROL FOR STRESS PERIOD   26   TIME STEP   10
 
 SOLVING FOR HEAD 
                                                   Max.-Head-Change                         Max.-Flux-Residual
  Residual-Control   Outer-Iter.   Inner-Iter.     Column Row Layer    Maximum-Head-Change  Column Row Layer    Maximum-Flux-Residual          L2-NORM 
          0                 1           2             4    7     1       0.2110659007E-01       4    7    1         0.1108314535E+01      0.2617249317E+01
          0                 2           2             4    7     1      -0.2053104955E-02       4    7    1        -0.1108320785E+00      0.2617220348E+00
          0                 3           2             4    7     1       0.1398087455E-03       4    7    1         0.7758242938E-02      0.1832023249E-01
          0                 4           1             4    7     1      -0.5563121417E-05       4    7    1        -0.3173126152E-03      0.7492865914E-03

    ------------------------------------------------
       NWT REQUIRED            4 OUTER ITERATIONS 
       AND A TOTAL OF          7 INNER ITERATIONS.
    ------------------------------------------------

 NO OUTPUT CONTROL FOR STRESS PERIOD   26   TIME STEP   11
 
 SOLVING FOR HEAD 
                                                   Max.-Head-Change                         Max.-Flux-Residual
  Residual-Control   Outer-Iter.   Inner-Iter.     Column Row Layer    Maximum-Head-Change  Column Row Layer    Maximum-Flux-Residual          L2-NORM 
          0                 1           2             4    7     1       0.2088594365E-01       4    7    1         0.1096669598E+01      0.2595609934E+01
          0                 2           2             4    7     1      -0.2031641864E-02       4    7    1        -0.1096675705E+00      0.2595582493E+00
          0                 3           2             4    7     1       0.1383471901E-03       4    7    1         0.7676727466E-02      0.1816880143E-01
          0                 4           1             4    7     1      -0.5504964595E-05       4    7    1        -0.3139786095E-03      0.7430914875E-03

    ------------------------------------------------
       NWT REQUIRED            4 OUTER ITERATIONS 
       AND A TOTAL OF          7 INNER ITERATIONS.
    ------------------------------------------------

 NO OUTPUT CONTROL FOR STRESS PERIOD   26   TIME STEP   12
 
 SOLVING FOR HEAD 
                                                   Max.-Head-Change                         Max.-Flux-Residual
  Residual-Control   Outer-Iter.   Inner-Iter.     Column Row Layer    Maximum-Head-Change  Column Row Layer    Maximum-Flux-Residual          L2-NORM 
          0                 1           2             4    7     1       0.2066861094E-01       4    7    1         0.1085200040E+01      0.2574264567E+01
          0                 2           2             4    7     1      -0.2010501111E-02       4    7    1        -0.1085206007E+00      0.2574235354E+00
          0                 3           2             4    7     1       0.1369075856E-03       4    7    1         0.7596439692E-02      0.1801941192E-01
          0                 4           1             4    7     1      -0.5447681476E-05       4    7    1        -0.3106948463E-03      0.7369843006E-03

    ------------------------------------------------
       NWT REQUIRED            4 OUTER ITERATIONS 
       AND A TOTAL OF          7 INNER ITERATIONS.
    ------------------------------------------------

 NO OUTPUT CONTROL FOR STRESS PERIOD   26   TIME STEP   13
 
 SOLVING FOR HEAD 
                                                   Max.-Head-Change                         Max.-Flux-Residual
  Residual-Control   Outer-Iter.   Inner-Iter.     Column Row Layer    Maximum-Head-Change  Column Row Layer    Maximum-Flux-Residual          L2-NORM 
          0                 1           2             4    7     1       0.2045465556E-01       4    7    1         0.1073909619E+01      0.2553209305E+01
          0                 2           2             4    7     1      -0.1989688885E-02       4    7    1        -0.1073915451E+00      0.2553184108E+00
          0                 3           2             4    7     1       0.1354903520E-03       4    7    1         0.7517405895E-02      0.1787203850E-01
          0                 4           1             4    7     1      -0.5391288178E-05       4    7    1        -0.3074623435E-03      0.7309616102E-03

    ------------------------------------------------
       NWT REQUIRED            4 OUTER ITERATIONS 
       AND A TOTAL OF          7 INNER ITERATIONS.
    ------------------------------------------------

 NO OUTPUT CONTROL FOR STRESS PERIOD   26   TIME STEP   14
 
 SOLVING FOR HEAD 
                                                   Max.-Head-Change                         Max.-Flux-Residual
  Residual-Control   Outer-Iter.   Inner-Iter.     Column Row Layer    Maximum-Head-Change  Column Row Layer    Maximum-Flux-Residual          L2-NORM 
          0                 1           2             4    7     1       0.2024387318E-01       4    7    1         0.1062786978E+01      0.2532449330E+01
          0                 2           2             4    7     1      -0.1969185311E-02       4    7    1        -0.1062792678E+00      0.2532427394E+00
          0                 3           2             4    7     1       0.1340941365E-03       4    7    1         0.7439546567E-02      0.1772673237E-01
          0                 4           1             4    7     1      -0.5335731397E-05       4    7    1        -0.3042778947E-03      0.7250208648E-03

    ------------------------------------------------
       NWT REQUIRED            4 OUTER ITERATIONS 
       AND A TOTAL OF          7 INNER ITERATIONS.
    ------------------------------------------------

 NO OUTPUT CONTROL FOR STRESS PERIOD   26   TIME STEP   15
 
 SOLVING FOR HEAD 
                                                   Max.-Head-Change                         Max.-Flux-Residual
  Residual-Control   Outer-Iter.   Inner-Iter.     Column Row Layer    Maximum-Head-Change  Column Row Layer    Maximum-Flux-Residual          L2-NORM 
          0                 1           2             4    7     1       0.2003646521E-01       4    7    1         0.1051843509E+01      0.2511966505E+01
          0                 2           2             4    7     1      -0.1949009981E-02       4    7    1        -0.1051849081E+00      0.2511942662E+00
          0                 3           2             4    7     1       0.1327202733E-03       4    7    1         0.7362941474E-02      0.1758336870E-01
          0                 4           1             4    7     1      -0.5281064323E-05       4    7    1        -0.3011447468E-03      0.7191493399E-03

    ------------------------------------------------
       NWT REQUIRED            4 OUTER ITERATIONS 
       AND A TOTAL OF          7 INNER ITERATIONS.
    ------------------------------------------------

 NO OUTPUT CONTROL FOR STRESS PERIOD   26   TIME STEP   16
 
 SOLVING FOR HEAD 
                                                   Max.-Head-Change                         Max.-Flux-Residual
  Residual-Control   Outer-Iter.   Inner-Iter.     Column Row Layer    Maximum-Head-Change  Column Row Layer    Maximum-Flux-Residual          L2-NORM 
          0                 1           2             4    7     1       0.1983208749E-01       4    7    1         0.1041060340E+01      0.2491755786E+01
          0                 2           2             4    7     1      -0.1929129416E-02       4    7    1        -0.1041065787E+00      0.2491732678E+00
          0                 3           2             4    7     1       0.1313664820E-03       4    7    1         0.7287458488E-02      0.1744182373E-01
          0                 4           1             4    7     1      -0.5227195543E-05       4    7    1        -0.2980574857E-03      0.7133298129E-03

    ------------------------------------------------
       NWT REQUIRED            4 OUTER ITERATIONS 
       AND A TOTAL OF          7 INNER ITERATIONS.
    ------------------------------------------------

 NO OUTPUT CONTROL FOR STRESS PERIOD   26   TIME STEP   17
 
 SOLVING FOR HEAD 
                                                   Max.-Head-Change                         Max.-Flux-Residual
  Residual-Control   Outer-Iter.   Inner-Iter.     Column Row Layer    Maximum-Head-Change  Column Row Layer    Maximum-Flux-Residual          L2-NORM 
          0                 1           2             4    7     1       0.1963095097E-01       4    7    1         0.1030448943E+01      0.2471827866E+01
          0                 2           2             4    7     1      -0.1909564137E-02       4    7    1        -0.1030454268E+00      0.2471805449E+00
          0                 3           2             4    7     1       0.1300341616E-03       4    7    1         0.7213177963E-02      0.1730238926E-01
          0                 4           1             4    7     1      -0.5174181585E-05       4    7    1        -0.2950194223E-03      0.7076360867E-03

    ------------------------------------------------
       NWT REQUIRED            4 OUTER ITERATIONS 
       AND A TOTAL OF          7 INNER ITERATIONS.
    ------------------------------------------------

 NO OUTPUT CONTROL FOR STRESS PERIOD   26   TIME STEP   18
 
 SOLVING FOR HEAD 
                                                   Max.-Head-Change                         Max.-Flux-Residual
  Residual-Control   Outer-Iter.   Inner-Iter.     Column Row Layer    Maximum-Head-Change  Column Row Layer    Maximum-Flux-Residual          L2-NORM 
          0                 1           2             4    7     1       0.1943271144E-01       4    7    1         0.1019990937E+01      0.2452161587E+01
          0                 2           2             4    7     1      -0.1890280661E-02       4    7    1        -0.1019996143E+00      0.2452139674E+00
          0                 3           2             4    7     1       0.1287210297E-03       4    7    1         0.7139971164E-02      0.1716476695E-01
          0                 4           1             4    7     1      -0.5121930579E-05       4    7    1        -0.2920252546E-03      0.7020323148E-03

    ------------------------------------------------
       NWT REQUIRED            4 OUTER ITERATIONS 
       AND A TOTAL OF          7 INNER ITERATIONS.
    ------------------------------------------------

 NO OUTPUT CONTROL FOR STRESS PERIOD   26   TIME STEP   19
 
 SOLVING FOR HEAD 
                                                   Max.-Head-Change                         Max.-Flux-Residual
  Residual-Control   Outer-Iter.   Inner-Iter.     Column Row Layer    Maximum-Head-Change  Column Row Layer    Maximum-Flux-Residual          L2-NORM 
          0                 1           2             4    7     1       0.1923744385E-01       4    7    1         0.1009690465E+01      0.2432749640E+01
          0                 2           2             4    7     1      -0.1871286277E-02       4    7    1        -0.1009695556E+00      0.2432728317E+00
          0                 3           2             4    7     1       0.1274275841E-03       4    7    1         0.7067867127E-02      0.1702887062E-01
          0                 4           1             4    7     1      -0.5070463015E-05       4    7    1        -0.2890761893E-03      0.6964671511E-03

    ------------------------------------------------
       NWT REQUIRED            4 OUTER ITERATIONS 
       AND A TOTAL OF          7 INNER ITERATIONS.
    ------------------------------------------------

 NO OUTPUT CONTROL FOR STRESS PERIOD   26   TIME STEP   20
 
 SOLVING FOR HEAD 
                                                   Max.-Head-Change                         Max.-Flux-Residual
  Residual-Control   Outer-Iter.   Inner-Iter.     Column Row Layer    Maximum-Head-Change  Column Row Layer    Maximum-Flux-Residual          L2-NORM 
          0                 1           2             4    7     1       0.1904522236E-01       4    7    1         0.9995514139E+00      0.2413603425E+01
          0                 2           2             4    7     1      -0.1852636629E-02       4    7    1        -0.9995563916E-01      0.2414194328E+00
          0                 3           2             4    7     1       0.1261576139E-03       4    7    1         0.6996893064E-02      0.1689913633E-01
          0                 4           1             4    7     1      -0.5019929827E-05       4    7    1        -0.2861733508E-03      0.6911721390E-03

    ------------------------------------------------
       NWT REQUIRED            4 OUTER ITERATIONS 
       AND A TOTAL OF          7 INNER ITERATIONS.
    ------------------------------------------------

 NO OUTPUT CONTROL FOR STRESS PERIOD   26   TIME STEP   21
 
 SOLVING FOR HEAD 
                                                   Max.-Head-Change                         Max.-Flux-Residual
  Residual-Control   Outer-Iter.   Inner-Iter.     Column Row Layer    Maximum-Head-Change  Column Row Layer    Maximum-Flux-Residual          L2-NORM 
          0                 1           2             4    7     1       0.1885568462E-01       4    7    1         0.9895603858E+00      0.2394661525E+01
          0                 2           2             4    7     1      -0.1834151199E-02       4    7    1        -0.9895652567E-01      0.2394641236E+00
          0                 3           2             4    7     1       0.1248988264E-03       4    7    1         0.6926955193E-02      0.1676229163E-01
          0                 4           1             4    7     1      -0.4969841723E-05       4    7    1        -0.2833128947E-03      0.6855722385E-03

    ------------------------------------------------
       NWT REQUIRED            4 OUTER ITERATIONS 
       AND A TOTAL OF          7 INNER ITERATIONS.
    ------------------------------------------------

 NO OUTPUT CONTROL FOR STRESS PERIOD   26   TIME STEP   22
 
 SOLVING FOR HEAD 
                                                   Max.-Head-Change                         Max.-Flux-Residual
  Residual-Control   Outer-Iter.   Inner-Iter.     Column Row Layer    Maximum-Head-Change  Column Row Layer    Maximum-Flux-Residual          L2-NORM 
          0                 1           2             4    7     1       0.1866892553E-01       4    7    1         0.9797136677E+00      0.2375938992E+01
          0                 2           2             4    7     1      -0.1815984475E-02       4    7    1        -0.9797184331E-01      0.2375919137E+00
          0                 3           2             4    7     1       0.1236617409E-03       4    7    1         0.6858027471E-02      0.1663121092E-01
          0                 4           1             4    7     1      -0.4920616960E-05       4    7    1        -0.2804937410E-03      0.6802055051E-03

    ------------------------------------------------
       NWT REQUIRED            4 OUTER ITERATIONS 
       AND A TOTAL OF          7 INNER ITERATIONS.
    ------------------------------------------------

 NO OUTPUT CONTROL FOR STRESS PERIOD   26   TIME STEP   23
 
 SOLVING FOR HEAD 
                                                   Max.-Head-Change                         Max.-Flux-Residual
  Residual-Control   Outer-Iter.   Inner-Iter.     Column Row Layer    Maximum-Head-Change  Column Row Layer    Maximum-Flux-Residual          L2-NORM 
          0                 1           2             4    7     1       0.1848484767E-01       4    7    1         0.9700084373E+00      0.2357469787E+01
          0                 2           2             4    7     1      -0.1798078565E-02       4    7    1        -0.9700130998E-01      0.2357450075E+00
          0                 3           2             4    7     1       0.1224424166E-03       4    7    1         0.6790090218E-02      0.1650194167E-01
          0                 4           1             4    7     1      -0.4872098850E-05       4    7    1        -0.2777151017E-03      0.6749070784E-03

    ------------------------------------------------
       NWT REQUIRED            4 OUTER ITERATIONS 
       AND A TOTAL OF          7 INNER ITERATIONS.
    ------------------------------------------------

 NO OUTPUT CONTROL FOR STRESS PERIOD   26   TIME STEP   24
 
 SOLVING FOR HEAD 
                                                   Max.-Head-Change                         Max.-Flux-Residual
  Residual-Control   Outer-Iter.   Inner-Iter.     Column Row Layer    Maximum-Head-Change  Column Row Layer    Maximum-Flux-Residual          L2-NORM 
          0                 1           2             4    7     1       0.1830339895E-01       4    7    1         0.9604422235E+00      0.2339242675E+01
          0                 2           2             4    7     1      -0.1780428403E-02       4    7    1        -0.9604467853E-01      0.2339223426E+00
          0                 3           1             4    7     1       0.1212405103E-03       4    7    1         0.6723126082E-02      0.1637438507E-01
          0                 4           1             4    7     1      -0.4824276917E-05       4    7    1        -0.2749762475E-03      0.6697303153E-03

    ------------------------------------------------
       NWT REQUIRED            4 OUTER ITERATIONS 
       AND A TOTAL OF          6 INNER ITERATIONS.
    ------------------------------------------------

 NO OUTPUT CONTROL FOR STRESS PERIOD   26   TIME STEP   25
 
 SOLVING FOR HEAD 
                                                   Max.-Head-Change                         Max.-Flux-Residual
  Residual-Control   Outer-Iter.   Inner-Iter.     Column Row Layer    Maximum-Head-Change  Column Row Layer    Maximum-Flux-Residual          L2-NORM 
          0                 1           2             4    7     1       0.1812466669E-01       4    7    1         0.9510196582E+00      0.2321250386E+01
          0                 2           2             4    7     1      -0.1763042482E-02       4    7    1        -0.9510241219E-01      0.2321231671E+00
          0                 3           1             4    7     1       0.1200565953E-03       4    7    1         0.6657167522E-02      0.1624843158E-01
          0                 4           1             4    7     1      -0.4777167509E-05       4    7    1        -0.2722785382E-03      0.6645566074E-03

    ------------------------------------------------
       NWT REQUIRED            4 OUTER ITERATIONS 
       AND A TOTAL OF          6 INNER ITERATIONS.
    ------------------------------------------------

 NO OUTPUT CONTROL FOR STRESS PERIOD   26   TIME STEP   26
 
 SOLVING FOR HEAD 
                                                   Max.-Head-Change                         Max.-Flux-Residual
  Residual-Control   Outer-Iter.   Inner-Iter.     Column Row Layer    Maximum-Head-Change  Column Row Layer    Maximum-Flux-Residual          L2-NORM 
          0                 1           2             4    7     1       0.1794832606E-01       4    7    1         0.9417232732E+00      0.2303489403E+01
          0                 2           2             4    7     1      -0.1745889204E-02       4    7    1        -0.9417276412E-01      0.2303470652E+00
          0                 3           1             4    7     1       0.1188885217E-03       4    7    1         0.6592092201E-02      0.1612409476E-01
          0                 4           1             4    7     1      -0.4730688885E-05       4    7    1        -0.2696169506E-03      0.6594699864E-03

    ------------------------------------------------
       NWT REQUIRED            4 OUTER ITERATIONS 
       AND A TOTAL OF          6 INNER ITERATIONS.
    ------------------------------------------------

 NO OUTPUT CONTROL FOR STRESS PERIOD   26   TIME STEP   27
 
 SOLVING FOR HEAD 
                                                   Max.-Head-Change                         Max.-Flux-Residual
  Residual-Control   Outer-Iter.   Inner-Iter.     Column Row Layer    Maximum-Head-Change  Column Row Layer    Maximum-Flux-Residual          L2-NORM 
          0                 1           2             4    7     1       0.1777474266E-01       4    7    1         0.9325728863E+00      0.2285970901E+01
          0                 2           2             4    7     1      -0.1729004133E-02       4    7    1        -0.9325771607E-01      0.2285952493E+00
          0                 3           1             4    7     1       0.1177387128E-03       4    7    1         0.6528038905E-02      0.1600146603E-01
          0                 4           1             4    7     1      -0.4684937292E-05       4    7    1        -0.2669971914E-03      0.6544589232E-03

    ------------------------------------------------
       NWT REQUIRED            4 OUTER ITERATIONS 
       AND A TOTAL OF          6 INNER ITERATIONS.
    ------------------------------------------------

 NO OUTPUT CONTROL FOR STRESS PERIOD   26   TIME STEP   28
 
 SOLVING FOR HEAD 
                                                   Max.-Head-Change                         Max.-Flux-Residual
  Residual-Control   Outer-Iter.   Inner-Iter.     Column Row Layer    Maximum-Head-Change  Column Row Layer    Maximum-Flux-Residual          L2-NORM 
          0                 1           2             4    7     1       0.1760358628E-01       4    7    1         0.9235507928E+00      0.2268663485E+01
          0                 2           2             4    7     1      -0.1712355149E-02       4    7    1        -0.9235549761E-01      0.2268645429E+00
          0                 3           1             4    7     1       0.1166049798E-03       4    7    1         0.6464883668E-02      0.1588033300E-01
          0                 4           1             4    7     1      -0.4639824772E-05       4    7    1        -0.2644141291E-03      0.6495012885E-03

    ------------------------------------------------
       NWT REQUIRED            4 OUTER ITERATIONS 
       AND A TOTAL OF          6 INNER ITERATIONS.
    ------------------------------------------------

 NO OUTPUT CONTROL FOR STRESS PERIOD   26   TIME STEP   29
 
 SOLVING FOR HEAD 
                                                   Max.-Head-Change                         Max.-Flux-Residual
  Residual-Control   Outer-Iter.   Inner-Iter.     Column Row Layer    Maximum-Head-Change  Column Row Layer    Maximum-Flux-Residual          L2-NORM 
          0                 1           2             4    7     1       0.1743481266E-01       4    7    1         0.9146545363E+00      0.2251590394E+01
          0                 2           2             4    7     1      -0.1695937946E-02       4    7    1        -0.9146586306E-01      0.2251572561E+00
          0                 3           1             4    7     1       0.1154870303E-03       4    7    1         0.6402609304E-02      0.1576082770E-01
          0                 4           1             4    7     1      -0.4595340158E-05       4    7    1        -0.2618670985E-03      0.6446129628E-03

    ------------------------------------------------
       NWT REQUIRED            4 OUTER ITERATIONS 
       AND A TOTAL OF          6 INNER ITERATIONS.
    ------------------------------------------------

 NO OUTPUT CONTROL FOR STRESS PERIOD   26   TIME STEP   30



 STREAM LISTING     PERIOD     26   STEP       30

 LAYER ROW COL. STREAM  RCH.  FLOW INTO     FLOW TO   FLOW OUT OF   OVRLND.     DIRECT     STREAM       STREAM     STREAM     STREAM   STREAMBED  STREAMBED
                SEG.NO.  NO.  STRM. RCH.    AQUIFER    STRM. RCH.    RUNOFF     PRECIP       ET          HEAD       DEPTH      WIDTH   CONDCTNC.   GRADIENT

   1    1    1     1     1    1.9000E+01  2.1427E-01   1.8786E+01  0.000E+00  0.000E+00  0.000E+00  1.09413E+03  1.082E+00  1.166E+01  5.249E-02  1.361E+00
   1    2    2     1     2    1.8786E+01  3.3054E-01   1.8455E+01  0.000E+00  0.000E+00  0.000E+00  1.08914E+03  1.077E+00  1.158E+01  8.107E-02  1.359E+00
   1    3    3     1     3    1.8455E+01  2.8064E-01   1.8175E+01  0.000E+00  0.000E+00  0.000E+00  1.08349E+03  1.072E+00  1.149E+01  6.892E-02  1.357E+00
   1    3    4     1     4    1.8175E+01  2.5740E-01   1.7917E+01  0.000E+00  0.000E+00  0.000E+00  1.07848E+03  1.068E+00  1.140E+01  6.328E-02  1.356E+00
   1    4    5     2     1    1.5917E+01  3.0542E-01   1.5612E+01  0.000E+00  0.000E+00  0.000E+00  1.07285E+03  9.157E-01  1.200E+01  7.800E-02  1.305E+00
   1    5    6     2     2    1.5612E+01  2.3438E-01   1.5377E+01  0.000E+00  0.000E+00  0.000E+00  1.06742E+03  9.063E-01  1.200E+01  6.000E-02  1.302E+00
   1    6    6     2     3    1.5377E+01  2.3388E-01   1.5143E+01  0.000E+00  0.000E+00  0.000E+00  1.06269E+03  8.980E-01  1.200E+01  6.000E-02  1.299E+00
   1    7    6     2     4    1.5143E+01  2.3338E-01   1.4910E+01  0.000E+00  0.000E+00  0.000E+00  1.05797E+03  8.897E-01  1.200E+01  6.000E-02  1.297E+00
   1    8    6     2     5    1.4910E+01  2.3289E-01   1.4677E+01  0.000E+00  0.000E+00  0.000E+00  1.05324E+03  8.814E-01  1.200E+01  6.000E-02  1.294E+00
   1    3    5     3     1    2.0000E+00  2.8252E-01   1.7175E+00  0.000E+00  0.000E+00  0.000E+00  1.07555E+03  1.909E+00  9.636E+00  7.227E-02  1.955E+00
   1    3    6     3     2    1.7175E+00  2.4905E-01   1.4684E+00  0.000E+00  0.000E+00  0.000E+00  1.07264E+03  1.727E+00  8.909E+00  6.682E-02  1.864E+00
   1    3    7     3     3    1.4684E+00  1.9718E-01   1.2712E+00  0.000E+00  0.000E+00  0.000E+00  1.06987E+03  1.555E+00  8.218E+00  5.547E-02  1.777E+00
   1    4    8     3     4    1.2712E+00  2.2567E-01   1.0456E+00  0.000E+00  0.000E+00  0.000E+00  1.06682E+03  1.364E+00  7.455E+00  6.709E-02  1.682E+00
   1    5    8     3     5    1.0456E+00  1.5790E-01   8.8768E-01  0.000E+00  0.000E+00  0.000E+00  1.06362E+03  1.164E+00  6.655E+00  4.991E-02  1.582E+00
   1    6    8     3     6    8.8768E-01  5.5980E-02   8.3170E-01  0.000E+00  0.000E+00  0.000E+00  1.06158E+03  1.036E+00  6.145E+00  1.844E-02  1.518E+00
   1    5   10     4     1    1.0000E+01  9.0919E-02   9.9091E+00  0.000E+00  0.000E+00  0.000E+00  1.07836E+03  6.368E-01  1.000E+01  2.500E-02  1.212E+00
   1    5    9     4     2    9.9091E+00  1.8158E-01   9.7275E+00  0.000E+00  0.000E+00  0.000E+00  1.07154E+03  6.315E-01  1.000E+01  5.000E-02  1.211E+00
   1    6    8     4     3    9.7275E+00  1.2689E-01   9.6006E+00  0.000E+00  0.000E+00  0.000E+00  1.06381E+03  6.256E-01  1.000E+01  3.500E-02  1.209E+00
   1    6    8     5     1    1.0432E+01  2.2686E-01   1.0205E+01  0.000E+00  0.000E+00  0.000E+00  1.05868E+03  6.790E-01  1.542E+01  6.166E-02  1.226E+00
   1    7    7     5     2    1.0205E+01  2.7894E-01   9.9265E+00  0.000E+00  0.000E+00  0.000E+00  1.05417E+03  6.732E-01  1.519E+01  7.594E-02  1.224E+00
   1    8    7     5     3    9.9265E+00  1.9221E-01   9.7343E+00  0.000E+00  0.000E+00  0.000E+00  1.04992E+03  6.676E-01  1.497E+01  5.241E-02  1.223E+00
   1    8    6     5     4    9.7343E+00  1.3577E-01   9.5985E+00  0.000E+00  0.000E+00  0.000E+00  1.04691E+03  6.637E-01  1.482E+01  3.706E-02  1.221E+00
   1    9    6     6     1    2.4276E+01  2.5176E-01   2.4024E+01  0.000E+00  0.000E+00  0.000E+00  1.04392E+03  1.196E+00  1.200E+01  6.000E-02  1.399E+00
   1   10    7     6     2    2.4024E+01  2.5131E-01   2.3773E+01  0.000E+00  0.000E+00  0.000E+00  1.03937E+03  1.188E+00  1.200E+01  6.000E-02  1.396E+00
   1   11    7     6     3    2.3773E+01  2.5086E-01   2.3522E+01  0.000E+00  0.000E+00  0.000E+00  1.03482E+03  1.181E+00  1.200E+01  6.000E-02  1.394E+00
   1   12    7     6     4    2.3522E+01  2.5041E-01   2.3271E+01  0.000E+00  0.000E+00  0.000E+00  1.03026E+03  1.173E+00  1.200E+01  6.000E-02  1.391E+00
   1   13    7     6     5    2.3271E+01  3.3959E-03   2.3268E+01  0.000E+00  0.000E+00  0.000E+00  1.02708E+03  1.170E+00  1.200E+01  2.400E-02  4.717E-02
   1   14    9     7     1    1.5000E+02  1.3386E+00   1.4866E+02  0.000E+00  0.000E+00  0.000E+00  1.03987E+03  2.288E+00  5.529E+01  5.593E-01  7.978E-01
   1   13    8     7     2    1.4866E+02  1.8634E+00   1.4680E+02  0.000E+00  0.000E+00  0.000E+00  1.03478E+03  2.279E+00  5.526E+01  6.148E-01  1.010E+00
   1   13    7     7     3    1.4680E+02  1.5370E+00   1.4526E+02  0.000E+00  0.000E+00  0.000E+00  1.02969E+03  2.270E+00  5.522E+01  5.584E-01  9.174E-01
   1   13    6     8     1    1.6853E+02  9.8806E-01   1.6754E+02  0.000E+00  0.000E+00  0.000E+00  1.02481E+03  2.939E+00  4.262E+01  4.343E-01  7.583E-01
   1   13    5     8     2    1.6754E+02  2.4724E-01   1.6729E+02  0.000E+00  0.000E+00  0.000E+00  1.01856E+03  2.935E+00  4.256E+01  4.337E-01  1.900E-01
   1   13    4     8     3    1.6729E+02 -2.1762E+00   1.6947E+02  0.000E+00  0.000E+00  0.000E+00  1.01232E+03  2.942E+00  4.265E+01  4.347E+00 -1.669E-01
   1   13    3     8     4    1.6947E+02 -3.5366E+00   1.7301E+02  0.000E+00  0.000E+00  0.000E+00  1.00609E+03  2.960E+00  4.292E+01  4.374E+00 -2.695E-01
   1   13    2     8     5    1.7301E+02 -2.5589E+00   1.7557E+02  0.000E+00  0.000E+00  0.000E+00  9.99855E+02  2.980E+00  4.321E+01  4.403E+00 -1.937E-01
   1   13    1     8     6    1.7557E+02 -1.9827E+00   1.7755E+02  0.000E+00  0.000E+00  0.000E+00  9.94869E+02  2.994E+00  4.342E+01  2.655E+00 -2.490E-01





UNSATURATED ZONE PACKAGE VOLUMETRIC BUDGET FOR  TIME STEP    30 STRESS PERIOD   26
  ------------------------------------------------------------------------------



     CUMULATIVE VOLUMES      L**3       RATES FOR THIS TIME STEP      L**3/T
     ------------------                 ------------------------

           IN:                                      IN:
           ---                                      ---
        INFILTRATION =  1085921740.3250          INFILTRATION =           4.4075

          OUT:                                     OUT:
          ----                                     ----
              UZF ET =  1000384688.5898                UZF ET =           0.7250
        UZF RECHARGE =      797698.7981          UZF RECHARGE =       0.0000E+00

            IN - OUT =    84739352.9370              IN - OUT =           3.6825

          STORAGE:                                 STORAGE:
          --------                                 --------
      STORAGE CHANGE =    84740292.0824        STORAGE CHANGE =           3.6825

 PERCENT DISCREPANCY IS DIFFERENCE BETWEEN IN-OUT MINUS CHANGE IN STORAGE
 DIVIDED BY THE AVERAGE OF IN AND OUT TIMES 100

 PERCENT DISCREPANCY =          -0.00     PERCENT DISCREPANCY =           0.00






1
  VOLUMETRIC BUDGET FOR AGRICULTURAL FIELDS AT TIME STEP   30, STRESS PERIOD  26
  ------------------------------------------------------------------------------

     CUMULATIVE VOLUMES      L**3       RATES FOR THIS TIME STEP      L**3/T
     ------------------                 ------------------------

           IN:                                      IN:
           ---                                      ---
               AG WELLS  =   796055104.0000                 AG WELLS  =           0.0000
      DIVERSION SEGMENTS =           0.0000        DIVERSION SEGMENTS =           0.0000
           GW IRRIGATION =           0.0000             GW IRRIGATION =           0.0000
           SW IRRIGATION =           0.0000             SW IRRIGATION =           0.0000
        SYSTEM LOSSES GW =           0.0000          SYSTEM LOSSES GW =           0.0000
        SYSTEM LOSSES SW =           0.0000          SYSTEM LOSSES SW =           0.0000

                TOTAL IN =   796055104.0000                  TOTAL IN =           0.0000

          OUT:                                     OUT:
          ----                                     ----
               AG WELLS  =           0.0000                 AG WELLS  =           0.0000
      DIVERSION SEGMENTS =           0.0000        DIVERSION SEGMENTS =           0.0000
           GW IRRIGATION =   796055104.0000             GW IRRIGATION =           0.0000
           SW IRRIGATION =           0.0000             SW IRRIGATION =           0.0000
        SYSTEM LOSSES GW =           0.0000          SYSTEM LOSSES GW =           0.0000
        SYSTEM LOSSES SW =           0.0000          SYSTEM LOSSES SW =           0.0000

               TOTAL OUT =   796055104.0000                 TOTAL OUT =           0.0000

                IN - OUT =           0.0000                  IN - OUT =           0.0000

     PERCENT DISCREPANCY =           0.00         PERCENT DISCREPANCY =           0.00



1
  VOLUMETRIC BUDGET FOR ENTIRE MODEL AT END OF TIME STEP   30, STRESS PERIOD  26
  ------------------------------------------------------------------------------

     CUMULATIVE VOLUMES      L**3       RATES FOR THIS TIME STEP      L**3/T
     ------------------                 ------------------------

           IN:                                      IN:
           ---                                      ---
             STORAGE     =  1100992896.0000               STORAGE     =           6.4758
       CONSTANT HEAD     =           0.0000         CONSTANT HEAD     =           0.0000
     HEAD DEP BOUNDS     =    18795522.0000       HEAD DEP BOUNDS     =           0.2859
      STREAM LEAKAGE     =   815265088.0000        STREAM LEAKAGE     =          11.7062
        UZF RECHARGE     =      797698.6250          UZF RECHARGE     =           0.0000
               GW ET     =           0.0000                 GW ET     =           0.0000
     SURFACE LEAKAGE     =           0.0000       SURFACE LEAKAGE     =           0.0000
           AG WELLS      =           0.0000             AG WELLS      =           0.0000

                TOTAL IN =  1935851264.0000                  TOTAL IN =          18.4680

          OUT:                                     OUT:
          ----                                     ----
             STORAGE     =   419234368.0000               STORAGE     =           7.9242
       CONSTANT HEAD     =           0.0000         CONSTANT HEAD     =           0.0000
     HEAD DEP BOUNDS     =    19347640.0000       HEAD DEP BOUNDS     =           0.2894
      STREAM LEAKAGE     =   683872256.0000        STREAM LEAKAGE     =          10.2544
        UZF RECHARGE     =           0.0000          UZF RECHARGE     =           0.0000
               GW ET     =    17343536.0000                 GW ET     =           0.0000
     SURFACE LEAKAGE     =           0.0000       SURFACE LEAKAGE     =           0.0000
           AG WELLS      =   796055104.0000             AG WELLS      =           0.0000

               TOTAL OUT =  1935852800.0000                 TOTAL OUT =          18.4680

                IN - OUT =       -1536.0000                  IN - OUT =       9.5367E-06

     PERCENT DISCREPANCY =          -0.00         PERCENT DISCREPANCY =           0.00






         TIME SUMMARY AT END OF TIME STEP   30 IN STRESS PERIOD   26
                    SECONDS     MINUTES      HOURS       DAYS        YEARS
                    -----------------------------------------------------------
   TIME STEP LENGTH  87667.      1461.1      24.352      1.0147     2.77799E-03
 STRESS PERIOD TIME 2.63000E+06  43833.      730.56      30.440     8.33397E-02
         TOTAL TIME 6.58368E+07 1.09728E+06  18288.      762.00      2.0862    
1
1
                            STRESS PERIOD NO.   27, LENGTH =   2630000.    
                            -----------------------------------------------

                              NUMBER OF TIME STEPS =    30

                               MULTIPLIER FOR DELT =     1.000

                            INITIAL TIME STEP SIZE =   87666.66    

 REUSING NON-PARAMETER GHB CELLS FROM LAST STRESS PERIOD

      2 GHB CELLS

 REUSING STREAM SEGMENT DATA FROM LAST STRESS PERIOD



            AREAL INFILTRATION RATE
 READING ON UNIT   19 WITH FORMAT: (10F4.0)            

            1           2           3           4           5           6           7           8           9          10
 ........................................................................................................................
   1   1.2000E-09   0.000       0.000       0.000       0.000       0.000       0.000       0.000       0.000       0.000    
   2   2.1000E-09  2.0000E-09  8.0000E-10  8.5000E-09   0.000       0.000       0.000       0.000       0.000       0.000    
   3   5.0000E-10  1.1000E-09  8.8000E-09  5.5000E-09   0.000       0.000       0.000       0.000       0.000       0.000    
   4   8.5000E-09  1.1000E-09  1.1000E-09  1.1000E-09  2.0000E-09   0.000       0.000       0.000       0.000       0.000    
   5   8.5000E-09  1.1000E-09  1.1000E-09  1.1000E-09  1.1000E-09   0.000       0.000       0.000       0.000       0.000    
   6   8.5000E-09  5.2000E-09  2.1000E-09  1.1000E-09  1.5000E-09   0.000       0.000       0.000       0.000       0.000    
   7   8.5000E-09  5.2000E-09  2.1000E-09  1.2000E-09  2.0000E-09   0.000       0.000       0.000       0.000       0.000    
   8   5.0000E-10  5.2000E-09  2.1000E-09  1.2000E-09  5.0000E-09   0.000       0.000       0.000       0.000       0.000    
   9   5.0000E-10  5.2000E-09  2.1000E-09  1.2000E-09  5.0000E-09   0.000       0.000       0.000       0.000       0.000    
  10   5.0000E-10  5.2000E-09  2.1000E-09  1.2000E-09  5.8000E-09   0.000       0.000       0.000       0.000       0.000    
  11   1.0000E-10  1.1000E-09  1.1000E-09  1.2000E-09  5.0000E-09   0.000       0.000       0.000       0.000       0.000    
  12   1.1000E-09  1.1000E-09  1.1000E-09  1.1000E-09  2.0000E-09   0.000       0.000       0.000       0.000       0.000    
  13   1.1000E-09  2.2000E-09  2.2000E-09  2.1000E-09  1.0000E-09   0.000       0.000       0.000       0.000       0.000    
  14   2.0000E-10  5.5000E-09  5.5000E-09  5.2000E-09  1.0000E-09   0.000       0.000       0.000       0.000       0.000    
  15    0.000      8.8000E-09  8.8000E-09   0.000       0.000       0.000       0.000       0.000       0.000       0.000    

                  ET RATE =  5.000000E-10

 USING ET EXTINCTION DEPTH FROM PREVIOUS STRESS PERIOD. CURRENT PERIOD IS:      27

 USING EXTINCTION WATER CONTENT FROM PREVIOUS STRESS PERIOD. CURRENT PERIOD IS:      27

 USING AIR ENTRY PRESSURE FROM PREVIOUS STRESS PERIOD. CURRENT PERIOD IS:      27

 USING ROOT PRESSURE HEAD FROM PREVIOUS STRESS PERIOD. CURRENT PERIOD IS:      27

 USING ROOT ACTIVITY FROM PREVIOUS STRESS PERIOD. CURRENT PERIOD IS:      27

 PROCESSING AG STRESS PERIOD DATA

 READING AG STRESS PERIOD DATA

 READING IRRIGATION WELL

 END PROCESSING AG STRESS PERIOD DATA OPTIONS
 
 SOLVING FOR HEAD 
                                                   Max.-Head-Change                         Max.-Flux-Residual
  Residual-Control   Outer-Iter.   Inner-Iter.     Column Row Layer    Maximum-Head-Change  Column Row Layer    Maximum-Flux-Residual          L2-NORM 
          0                 1           2             4    7     1       0.1726837939E-01       4    7    1         0.9058818217E+00      0.2234727242E+01
          0                 2           2             4    7     1      -0.1679748398E-02       4    7    1        -0.9058858291E-01      0.2234709855E+00
          0                 3           1             4    7     1       0.1143845836E-03       4    7    1         0.6341199751E-02      0.1564278517E-01
          0                 4           1             4    7     1      -0.4551472973E-05       4    7    1        -0.2593554534E-03      0.6397679579E-03

    ------------------------------------------------
       NWT REQUIRED            4 OUTER ITERATIONS 
       AND A TOTAL OF          6 INNER ITERATIONS.
    ------------------------------------------------

 NO OUTPUT CONTROL FOR STRESS PERIOD   27   TIME STEP    1
 
 SOLVING FOR HEAD 
                                                   Max.-Head-Change                         Max.-Flux-Residual
  Residual-Control   Outer-Iter.   Inner-Iter.     Column Row Layer    Maximum-Head-Change  Column Row Layer    Maximum-Flux-Residual          L2-NORM 
          0                 1           2             4    7     1       0.1710451324E-01       4    7    1         0.8972451174E+00      0.2218083044E+01
          0                 2           2             4    7     1      -0.1663808564E-02       4    7    1        -0.8972490402E-01      0.2218065728E+00
          0                 3           1             4    7     1       0.1132991409E-03       4    7    1         0.6280742272E-02      0.1552626868E-01
          0                 4           1             4    7     1      -0.4508282394E-05       4    7    1        -0.2568827408E-03      0.6350079948E-03

    ------------------------------------------------
       NWT REQUIRED            4 OUTER ITERATIONS 
       AND A TOTAL OF          6 INNER ITERATIONS.
    ------------------------------------------------

 NO OUTPUT CONTROL FOR STRESS PERIOD   27   TIME STEP    2
 
 SOLVING FOR HEAD 
                                                   Max.-Head-Change                         Max.-Flux-Residual
  Residual-Control   Outer-Iter.   Inner-Iter.     Column Row Layer    Maximum-Head-Change  Column Row Layer    Maximum-Flux-Residual          L2-NORM 
          0                 1           2             4    7     1       0.1694275073E-01       4    7    1         0.8887195134E+00      0.2201643580E+01
          0                 2           2             4    7     1      -0.1648073359E-02       4    7    1        -0.8887233533E-01      0.2201626288E+00
          0                 3           1             4    7     1       0.1122276331E-03       4    7    1         0.6221062526E-02      0.1541116826E-01
          0                 4           1             4    7     1      -0.4465645923E-05       4    7    1        -0.2544418280E-03      0.6302943340E-03

    ------------------------------------------------
       NWT REQUIRED            4 OUTER ITERATIONS 
       AND A TOTAL OF          6 INNER ITERATIONS.
    ------------------------------------------------

 NO OUTPUT CONTROL FOR STRESS PERIOD   27   TIME STEP    3
 
 SOLVING FOR HEAD 
                                                   Max.-Head-Change                         Max.-Flux-Residual
  Residual-Control   Outer-Iter.   Inner-Iter.     Column Row Layer    Maximum-Head-Change  Column Row Layer    Maximum-Flux-Residual          L2-NORM 
          0                 1           2             4    7     1       0.1678346660E-01       4    7    1         0.8803249808E+00      0.2185421359E+01
          0                 2           2             4    7     1      -0.1632579237E-02       4    7    1        -0.8803287399E-01      0.2185404251E+00
          0                 3           1             4    7     1       0.1111725420E-03       4    7    1         0.6162300284E-02      0.1529764108E-01
          0                 4           1             4    7     1      -0.4423662571E-05       4    7    1        -0.2520384487E-03      0.6256647659E-03

    ------------------------------------------------
       NWT REQUIRED            4 OUTER ITERATIONS 
       AND A TOTAL OF          6 INNER ITERATIONS.
    ------------------------------------------------

 NO OUTPUT CONTROL FOR STRESS PERIOD   27   TIME STEP    4
 
 SOLVING FOR HEAD 
                                                   Max.-Head-Change                         Max.-Flux-Residual
  Residual-Control   Outer-Iter.   Inner-Iter.     Column Row Layer    Maximum-Head-Change  Column Row Layer    Maximum-Flux-Residual          L2-NORM 
          0                 1           2             4    7     1       0.1662633309E-01       4    7    1         0.8720442810E+00      0.2169388411E+01
          0                 2           2             4    7     1      -0.1617294314E-02       4    7    1        -0.8720479615E-01      0.2169372086E+00
          0                 3           1             4    7     1       0.1101316965E-03       4    7    1         0.6104334888E-02      0.1518549733E-01
          0                 4           1             4    7     1      -0.4382246453E-05       4    7    1        -0.2496676586E-03      0.6210822826E-03

    ------------------------------------------------
       NWT REQUIRED            4 OUTER ITERATIONS 
       AND A TOTAL OF          6 INNER ITERATIONS.
    ------------------------------------------------

 NO OUTPUT CONTROL FOR STRESS PERIOD   27   TIME STEP    5
 
 SOLVING FOR HEAD 
                                                   Max.-Head-Change                         Max.-Flux-Residual
  Residual-Control   Outer-Iter.   Inner-Iter.     Column Row Layer    Maximum-Head-Change  Column Row Layer    Maximum-Flux-Residual          L2-NORM 
          0                 1           2             4    7     1       0.1647131386E-01       4    7    1         0.8638750865E+00      0.2153559742E+01
          0                 2           2             4    7     1      -0.1602215056E-02       4    7    1        -0.8638786899E-01      0.2153542927E+00
          0                 3           1             4    7     1       0.1091048560E-03       4    7    1         0.6047150040E-02      0.1507462167E-01
          0                 4           1             4    7     1      -0.4341387322E-05       4    7    1        -0.2473287827E-03      0.6165595699E-03

    ------------------------------------------------
       NWT REQUIRED            4 OUTER ITERATIONS 
       AND A TOTAL OF          6 INNER ITERATIONS.
    ------------------------------------------------

 NO OUTPUT CONTROL FOR STRESS PERIOD   27   TIME STEP    6
 
 SOLVING FOR HEAD 
                                                   Max.-Head-Change                         Max.-Flux-Residual
  Residual-Control   Outer-Iter.   Inner-Iter.     Column Row Layer    Maximum-Head-Change  Column Row Layer    Maximum-Flux-Residual          L2-NORM 
          0                 1           2             4    7     1       0.1631864134E-01       4    7    1         0.8558301835E+00      0.2137939037E+01
          0                 2           2             4    7     1      -0.1587364071E-02       4    7    1        -0.8558337120E-01      0.2137922277E+00
          0                 3           1             4    7     1       0.1080935602E-03       4    7    1         0.5990835239E-02      0.1496529899E-01
          0                 4           1             4    7     1      -0.4301147233E-05       4    7    1        -0.2450255224E-03      0.6120812158E-03

    ------------------------------------------------
       NWT REQUIRED            4 OUTER ITERATIONS 
       AND A TOTAL OF          6 INNER ITERATIONS.
    ------------------------------------------------

 NO OUTPUT CONTROL FOR STRESS PERIOD   27   TIME STEP    7
 
 SOLVING FOR HEAD 
                                                   Max.-Head-Change                         Max.-Flux-Residual
  Residual-Control   Outer-Iter.   Inner-Iter.     Column Row Layer    Maximum-Head-Change  Column Row Layer    Maximum-Flux-Residual          L2-NORM 
          0                 1           2             4    7     1       0.1616799372E-01       4    7    1         0.8478922841E+00      0.2122493379E+01
          0                 2           2             4    7     1      -0.1575196133E-02       4    7    1        -0.8494832465E-01      0.2122912322E+00
          0                 3           1             4    7     1       0.1072649659E-03       4    7    1         0.5946381768E-02      0.1486021953E-01
          0                 4           1             4    7     1      -0.4268176645E-05       4    7    1        -0.2432073729E-03      0.6077750186E-03

    ------------------------------------------------
       NWT REQUIRED            4 OUTER ITERATIONS 
       AND A TOTAL OF          6 INNER ITERATIONS.
    ------------------------------------------------

 NO OUTPUT CONTROL FOR STRESS PERIOD   27   TIME STEP    8
 
 SOLVING FOR HEAD 
                                                   Max.-Head-Change                         Max.-Flux-Residual
  Residual-Control   Outer-Iter.   Inner-Iter.     Column Row Layer    Maximum-Head-Change  Column Row Layer    Maximum-Flux-Residual          L2-NORM 
          0                 1           2             4    7     1       0.1601388254E-01       4    7    1         0.8399341929E+00      0.2107219771E+01
          0                 2           2             4    7     1      -0.1557719443E-02       4    7    1        -0.8399377922E-01      0.2107203392E+00
          0                 3           1             4    7     1       0.1060748696E-03       4    7    1         0.5879563663E-02      0.1475024673E-01
          0                 4           1             4    7     1      -0.4220821324E-05       4    7    1        -0.2404745012E-03      0.6032666520E-03

    ------------------------------------------------
       NWT REQUIRED            4 OUTER ITERATIONS 
       AND A TOTAL OF          6 INNER ITERATIONS.
    ------------------------------------------------

 NO OUTPUT CONTROL FOR STRESS PERIOD   27   TIME STEP    9
 
 SOLVING FOR HEAD 
                                                   Max.-Head-Change                         Max.-Flux-Residual
  Residual-Control   Outer-Iter.   Inner-Iter.     Column Row Layer    Maximum-Head-Change  Column Row Layer    Maximum-Flux-Residual          L2-NORM 
          0                 1           2             4    7     1       0.1586451943E-01       4    7    1         0.8320541945E+00      0.2092109778E+01
          0                 2           2             4    7     1      -0.1543190363E-02       4    7    1        -0.8320577108E-01      0.2092093891E+00
          0                 3           1             4    7     1       0.1050854946E-03       4    7    1         0.5824403158E-02      0.1464450432E-01
          0                 4           1             4    7     1      -0.4181453556E-05       4    7    1        -0.2382184477E-03      0.5989600864E-03

    ------------------------------------------------
       NWT REQUIRED            4 OUTER ITERATIONS 
       AND A TOTAL OF          6 INNER ITERATIONS.
    ------------------------------------------------

 NO OUTPUT CONTROL FOR STRESS PERIOD   27   TIME STEP   10
 
 SOLVING FOR HEAD 
                                                   Max.-Head-Change                         Max.-Flux-Residual
  Residual-Control   Outer-Iter.   Inner-Iter.     Column Row Layer    Maximum-Head-Change  Column Row Layer    Maximum-Flux-Residual          L2-NORM 
          0                 1           2             4    7     1       0.1571743496E-01       4    7    1         0.8242952164E+00      0.2077190770E+01
          0                 2           2             4    7     1      -0.1528882934E-02       4    7    1        -0.8242986519E-01      0.2077174810E+00
          0                 3           1             4    7     1       0.1041112130E-03       4    7    1         0.5770089807E-02      0.1454007459E-01
          0                 4           1             4    7     1      -0.4142685949E-05       4    7    1        -0.2359970238E-03      0.5946756204E-03

    ------------------------------------------------
       NWT REQUIRED            4 OUTER ITERATIONS 
       AND A TOTAL OF          6 INNER ITERATIONS.
    ------------------------------------------------

 NO OUTPUT CONTROL FOR STRESS PERIOD   27   TIME STEP   11
 
 SOLVING FOR HEAD 
                                                   Max.-Head-Change                         Max.-Flux-Residual
  Residual-Control   Outer-Iter.   Inner-Iter.     Column Row Layer    Maximum-Head-Change  Column Row Layer    Maximum-Flux-Residual          L2-NORM 
          0                 1           2             4    7     1       0.1557257074E-01       4    7    1         0.8166543819E+00      0.2062454879E+01
          0                 2           2             4    7     1      -0.1514791480E-02       4    7    1        -0.8166577392E-01      0.2062439152E+00
          0                 3           1             4    7     1       0.1031516383E-03       4    7    1         0.5716603473E-02      0.1443692454E-01
          0                 4           1             4    7     1      -0.4104503305E-05       4    7    1        -0.2338094228E-03      0.5904678537E-03

    ------------------------------------------------
       NWT REQUIRED            4 OUTER ITERATIONS 
       AND A TOTAL OF          6 INNER ITERATIONS.
    ------------------------------------------------

 NO OUTPUT CONTROL FOR STRESS PERIOD   27   TIME STEP   12
 
 SOLVING FOR HEAD 
                                                   Max.-Head-Change                         Max.-Flux-Residual
  Residual-Control   Outer-Iter.   Inner-Iter.     Column Row Layer    Maximum-Head-Change  Column Row Layer    Maximum-Flux-Residual          L2-NORM 
          0                 1           2             4    7     1       0.1542987410E-01       4    7    1         0.8091286646E+00      0.2047903761E+01
          0                 2           2             4    7     1      -0.1500910876E-02       4    7    1        -0.8091319458E-01      0.2047887876E+00
          0                 3           1             4    7     1       0.1022064217E-03       4    7    1         0.5663922978E-02      0.1433505333E-01
          0                 4           1             4    7     1      -0.4066892039E-05       4    7    1        -0.2316547793E-03      0.5862982305E-03

    ------------------------------------------------
       NWT REQUIRED            4 OUTER ITERATIONS 
       AND A TOTAL OF          6 INNER ITERATIONS.
    ------------------------------------------------

 NO OUTPUT CONTROL FOR STRESS PERIOD   27   TIME STEP   13
 
 SOLVING FOR HEAD 
                                                   Max.-Head-Change                         Max.-Flux-Residual
  Residual-Control   Outer-Iter.   Inner-Iter.     Column Row Layer    Maximum-Head-Change  Column Row Layer    Maximum-Flux-Residual          L2-NORM 
          0                 1           2             4    7     1       0.1528929174E-01       4    7    1         0.8017153332E+00      0.2033521398E+01
          0                 2           2             4    7     1      -0.1487235936E-02       4    7    1        -0.8017185406E-01      0.2033505511E+00
          0                 3           1             4    7     1       0.1012752099E-03       4    7    1         0.5612029169E-02      0.1423435917E-01
          0                 4           1             4    7     1      -0.4029838335E-05       4    7    1        -0.2295323227E-03      0.5821782302E-03

    ------------------------------------------------
       NWT REQUIRED            4 OUTER ITERATIONS 
       AND A TOTAL OF          6 INNER ITERATIONS.
    ------------------------------------------------

 NO OUTPUT CONTROL FOR STRESS PERIOD   27   TIME STEP   14
 
 SOLVING FOR HEAD 
                                                   Max.-Head-Change                         Max.-Flux-Residual
  Residual-Control   Outer-Iter.   Inner-Iter.     Column Row Layer    Maximum-Head-Change  Column Row Layer    Maximum-Flux-Residual          L2-NORM 
          0                 1           2             4    7     1       0.1515077512E-01       4    7    1         0.7944116237E+00      0.2019321231E+01
          0                 2           2             4    7     1      -0.1473761940E-02       4    7    1        -0.7944147595E-01      0.2019305542E+00
          0                 3           1             4    7     1       0.1003576817E-03       4    7    1         0.5560902749E-02      0.1413497274E-01
          0                 4           1             4    7     1      -0.3993329071E-05       4    7    1        -0.2274412452E-03      0.5780969846E-03

    ------------------------------------------------
       NWT REQUIRED            4 OUTER ITERATIONS 
       AND A TOTAL OF          6 INNER ITERATIONS.
    ------------------------------------------------

 NO OUTPUT CONTROL FOR STRESS PERIOD   27   TIME STEP   15
 
 SOLVING FOR HEAD 
                                                   Max.-Head-Change                         Max.-Flux-Residual
  Residual-Control   Outer-Iter.   Inner-Iter.     Column Row Layer    Maximum-Head-Change  Column Row Layer    Maximum-Flux-Residual          L2-NORM 
          0                 1           2             4    7     1       0.1501427605E-01       4    7    1         0.7872150200E+00      0.2005289392E+01
          0                 2           2             4    7     1      -0.1460484200E-02       4    7    1        -0.7872180862E-01      0.2005273713E+00
          0                 3           1             4    7     1       0.9945351818E-04       4    7    1         0.5510526100E-02      0.1403675321E-01

    ------------------------------------------------
       NWT REQUIRED            3 OUTER ITERATIONS 
       AND A TOTAL OF          5 INNER ITERATIONS.
    ------------------------------------------------

 NO OUTPUT CONTROL FOR STRESS PERIOD   27   TIME STEP   16
 
 SOLVING FOR HEAD 
                                                   Max.-Head-Change                         Max.-Flux-Residual
  Residual-Control   Outer-Iter.   Inner-Iter.     Column Row Layer    Maximum-Head-Change  Column Row Layer    Maximum-Flux-Residual          L2-NORM 
          0                 1           2             4    7     1       0.1487956289E-01       4    7    1         0.7801131531E+00      0.1991415266E+01
          0                 2           2             4    7     1      -0.1447380183E-02       4    7    1        -0.7801161513E-01      0.1991399697E+00
          0                 3           1             4    7     1       0.9856118421E-04       4    7    1         0.5460812592E-02      0.1393964264E-01

    ------------------------------------------------
       NWT REQUIRED            3 OUTER ITERATIONS 
       AND A TOTAL OF          5 INNER ITERATIONS.
    ------------------------------------------------

 NO OUTPUT CONTROL FOR STRESS PERIOD   27   TIME STEP   17
 
 SOLVING FOR HEAD 
                                                   Max.-Head-Change                         Max.-Flux-Residual
  Residual-Control   Outer-Iter.   Inner-Iter.     Column Row Layer    Maximum-Head-Change  Column Row Layer    Maximum-Flux-Residual          L2-NORM 
          0                 1           2             4    7     1       0.1474691620E-01       4    7    1         0.7731211245E+00      0.1977713179E+01
          0                 2           2             4    7     1      -0.1434477178E-02       4    7    1        -0.7731240569E-01      0.1977697728E+00
          0                 3           1             4    7     1       0.9768253788E-04       4    7    1         0.5411867957E-02      0.1384373804E-01

    ------------------------------------------------
       NWT REQUIRED            3 OUTER ITERATIONS 
       AND A TOTAL OF          5 INNER ITERATIONS.
    ------------------------------------------------

 NO OUTPUT CONTROL FOR STRESS PERIOD   27   TIME STEP   18
 
 SOLVING FOR HEAD 
                                                   Max.-Head-Change                         Max.-Flux-Residual
  Residual-Control   Outer-Iter.   Inner-Iter.     Column Row Layer    Maximum-Head-Change  Column Row Layer    Maximum-Flux-Residual          L2-NORM 
          0                 1           2             4    7     1       0.1461615325E-01       4    7    1         0.7662289005E+00      0.1964171885E+01
          0                 2           2             4    7     1      -0.1421757414E-02       4    7    1        -0.7662317690E-01      0.1964156477E+00
          0                 3           1             4    7     1       0.9681637015E-04       4    7    1         0.5363621986E-02      0.1374893911E-01

    ------------------------------------------------
       NWT REQUIRED            3 OUTER ITERATIONS 
       AND A TOTAL OF          5 INNER ITERATIONS.
    ------------------------------------------------

 NO OUTPUT CONTROL FOR STRESS PERIOD   27   TIME STEP   19
 
 SOLVING FOR HEAD 
                                                   Max.-Head-Change                         Max.-Flux-Residual
  Residual-Control   Outer-Iter.   Inner-Iter.     Column Row Layer    Maximum-Head-Change  Column Row Layer    Maximum-Flux-Residual          L2-NORM 
          0                 1           2             4    7     1       0.1448709407E-01       4    7    1         0.7594270074E+00      0.1950793004E+01
          0                 2           2             4    7     1      -0.1409203383E-02       4    7    1        -0.7594298134E-01      0.1950777539E+00
          0                 3           1             4    7     1       0.9596148783E-04       4    7    1         0.5316008334E-02      0.1365527257E-01

    ------------------------------------------------
       NWT REQUIRED            3 OUTER ITERATIONS 
       AND A TOTAL OF          5 INNER ITERATIONS.
    ------------------------------------------------

 NO OUTPUT CONTROL FOR STRESS PERIOD   27   TIME STEP   20
 
 SOLVING FOR HEAD 
                                                   Max.-Head-Change                         Max.-Flux-Residual
  Residual-Control   Outer-Iter.   Inner-Iter.     Column Row Layer    Maximum-Head-Change  Column Row Layer    Maximum-Flux-Residual          L2-NORM 
          0                 1           2             4    7     1       0.1435997521E-01       4    7    1         0.7527281277E+00      0.1937571601E+01
          0                 2           2             4    7     1      -0.1396838095E-02       4    7    1        -0.7527308733E-01      0.1937544133E+00
          0                 3           1             4    7     1       0.9511945853E-04       4    7    1         0.5269115787E-02      0.1356264966E-01

    ------------------------------------------------
       NWT REQUIRED            3 OUTER ITERATIONS 
       AND A TOTAL OF          5 INNER ITERATIONS.
    ------------------------------------------------

 NO OUTPUT CONTROL FOR STRESS PERIOD   27   TIME STEP   21
 
 SOLVING FOR HEAD 
                                                   Max.-Head-Change                         Max.-Flux-Residual
  Residual-Control   Outer-Iter.   Inner-Iter.     Column Row Layer    Maximum-Head-Change  Column Row Layer    Maximum-Flux-Residual          L2-NORM 
          0                 1           2             4    7     1       0.1423461799E-01       4    7    1         0.7461225118E+00      0.1924506967E+01
          0                 2           2             4    7     1      -0.1384644168E-02       4    7    1        -0.7461251983E-01      0.1924491837E+00
          0                 3           1             4    7     1       0.9428909805E-04       4    7    1         0.5222876098E-02      0.1347129366E-01

    ------------------------------------------------
       NWT REQUIRED            3 OUTER ITERATIONS 
       AND A TOTAL OF          5 INNER ITERATIONS.
    ------------------------------------------------

 NO OUTPUT CONTROL FOR STRESS PERIOD   27   TIME STEP   22
 
 SOLVING FOR HEAD 
                                                   Max.-Head-Change                         Max.-Flux-Residual
  Residual-Control   Outer-Iter.   Inner-Iter.     Column Row Layer    Maximum-Head-Change  Column Row Layer    Maximum-Flux-Residual          L2-NORM 
          0                 1           2             4    7     1       0.1411098227E-01       4    7    1         0.7396082338E+00      0.1911600113E+01
          0                 2           2             4    7     1      -0.1372617699E-02       4    7    1        -0.7396108631E-01      0.1911585149E+00
          0                 3           1             4    7     1       0.9347014120E-04       4    7    1         0.5177275787E-02      0.1338094709E-01

    ------------------------------------------------
       NWT REQUIRED            3 OUTER ITERATIONS 
       AND A TOTAL OF          5 INNER ITERATIONS.
    ------------------------------------------------

 NO OUTPUT CONTROL FOR STRESS PERIOD   27   TIME STEP   23
 
 SOLVING FOR HEAD 
                                                   Max.-Head-Change                         Max.-Flux-Residual
  Residual-Control   Outer-Iter.   Inner-Iter.     Column Row Layer    Maximum-Head-Change  Column Row Layer    Maximum-Flux-Residual          L2-NORM 
          0                 1           2             4    7     1       0.1398916319E-01       4    7    1         0.7331905512E+00      0.1898839076E+01
          0                 2           2             4    7     1      -0.1360767942E-02       4    7    1        -0.7331931248E-01      0.1898823883E+00
          0                 3           1             4    7     1       0.9266321740E-04       4    7    1         0.5132351655E-02      0.1329159794E-01

    ------------------------------------------------
       NWT REQUIRED            3 OUTER ITERATIONS 
       AND A TOTAL OF          5 INNER ITERATIONS.
    ------------------------------------------------

 NO OUTPUT CONTROL FOR STRESS PERIOD   27   TIME STEP   24
 
 SOLVING FOR HEAD 
                                                   Max.-Head-Change                         Max.-Flux-Residual
  Residual-Control   Outer-Iter.   Inner-Iter.     Column Row Layer    Maximum-Head-Change  Column Row Layer    Maximum-Flux-Residual          L2-NORM 
          0                 1           2             4    7     1       0.1386884987E-01       4    7    1         0.7268523805E+00      0.1886226040E+01
          0                 2           2             4    7     1      -0.1349064656E-02       4    7    1        -0.7268548997E-01      0.1886211627E+00
          0                 3           1             4    7     1       0.9186626785E-04       4    7    1         0.5087984112E-02      0.1320336427E-01

    ------------------------------------------------
       NWT REQUIRED            3 OUTER ITERATIONS 
       AND A TOTAL OF          5 INNER ITERATIONS.
    ------------------------------------------------

 NO OUTPUT CONTROL FOR STRESS PERIOD   27   TIME STEP   25
 
 SOLVING FOR HEAD 
                                                   Max.-Head-Change                         Max.-Flux-Residual
  Residual-Control   Outer-Iter.   Inner-Iter.     Column Row Layer    Maximum-Head-Change  Column Row Layer    Maximum-Flux-Residual          L2-NORM 
          0                 1           2             4    7     1       0.1375028453E-01       4    7    1         0.7206069582E+00      0.1873764011E+01
          0                 2           2             4    7     1      -0.1337531403E-02       4    7    1        -0.7206094245E-01      0.1873749444E+00
          0                 3           1             4    7     1       0.9108089706E-04       4    7    1         0.5044265829E-02      0.1311611280E-01

    ------------------------------------------------
       NWT REQUIRED            3 OUTER ITERATIONS 
       AND A TOTAL OF          5 INNER ITERATIONS.
    ------------------------------------------------

 NO OUTPUT CONTROL FOR STRESS PERIOD   27   TIME STEP   26
 
 SOLVING FOR HEAD 
                                                   Max.-Head-Change                         Max.-Flux-Residual
  Residual-Control   Outer-Iter.   Inner-Iter.     Column Row Layer    Maximum-Head-Change  Column Row Layer    Maximum-Flux-Residual          L2-NORM 
          0                 1           2             4    7     1       0.1363315873E-01       4    7    1         0.7144374873E+00      0.1861439133E+01
          0                 2           2             4    7     1      -0.1326138180E-02       4    7    1        -0.7144399021E-01      0.1861424343E+00
          0                 3           1             4    7     1       0.9030506113E-04       4    7    1         0.5001079183E-02      0.1302981916E-01

    ------------------------------------------------
       NWT REQUIRED            3 OUTER ITERATIONS 
       AND A TOTAL OF          5 INNER ITERATIONS.
    ------------------------------------------------

 NO OUTPUT CONTROL FOR STRESS PERIOD   27   TIME STEP   27
 
 SOLVING FOR HEAD 
                                                   Max.-Head-Change                         Max.-Flux-Residual
  Residual-Control   Outer-Iter.   Inner-Iter.     Column Row Layer    Maximum-Head-Change  Column Row Layer    Maximum-Flux-Residual          L2-NORM 
          0                 1           2             4    7     1       0.1351784928E-01       4    7    1         0.7083646725E+00      0.1849264687E+01
          0                 2           2             4    7     1      -0.1314921640E-02       4    7    1        -0.7083670373E-01      0.1849249690E+00
          0                 3           1             4    7     1       0.8954125744E-04       4    7    1         0.4958569173E-02      0.1294458697E-01

    ------------------------------------------------
       NWT REQUIRED            3 OUTER ITERATIONS 
       AND A TOTAL OF          5 INNER ITERATIONS.
    ------------------------------------------------

 NO OUTPUT CONTROL FOR STRESS PERIOD   27   TIME STEP   28
 
 SOLVING FOR HEAD 
                                                   Max.-Head-Change                         Max.-Flux-Residual
  Residual-Control   Outer-Iter.   Inner-Iter.     Column Row Layer    Maximum-Head-Change  Column Row Layer    Maximum-Flux-Residual          L2-NORM 
          0                 1           2             4    7     1       0.1340390833E-01       4    7    1         0.7023640127E+00      0.1837224650E+01
          0                 2           2             4    7     1      -0.1303838221E-02       4    7    1        -0.7023663286E-01      0.1837210020E+00
          0                 3           1             4    7     1       0.8878651797E-04       4    7    1         0.4916564229E-02      0.1286032728E-01

    ------------------------------------------------
       NWT REQUIRED            3 OUTER ITERATIONS 
       AND A TOTAL OF          5 INNER ITERATIONS.
    ------------------------------------------------

 NO OUTPUT CONTROL FOR STRESS PERIOD   27   TIME STEP   29
 
 SOLVING FOR HEAD 
                                                   Max.-Head-Change                         Max.-Flux-Residual
  Residual-Control   Outer-Iter.   Inner-Iter.     Column Row Layer    Maximum-Head-Change  Column Row Layer    Maximum-Flux-Residual          L2-NORM 
          0                 1           2             4    7     1       0.1329158058E-01       4    7    1         0.6964489877E+00      0.1825316276E+01
          0                 2           2             4    7     1      -0.1292911723E-02       4    7    1        -0.6964512561E-01      0.1825301835E+00
          0                 3           1             4    7     1       0.8804246418E-04       4    7    1         0.4875158733E-02      0.1277697726E-01

    ------------------------------------------------
       NWT REQUIRED            3 OUTER ITERATIONS 
       AND A TOTAL OF          5 INNER ITERATIONS.
    ------------------------------------------------

 NO OUTPUT CONTROL FOR STRESS PERIOD   27   TIME STEP   30



 STREAM LISTING     PERIOD     27   STEP       30

 LAYER ROW COL. STREAM  RCH.  FLOW INTO     FLOW TO   FLOW OUT OF   OVRLND.     DIRECT     STREAM       STREAM     STREAM     STREAM   STREAMBED  STREAMBED
                SEG.NO.  NO.  STRM. RCH.    AQUIFER    STRM. RCH.    RUNOFF     PRECIP       ET          HEAD       DEPTH      WIDTH   CONDCTNC.   GRADIENT

   1    1    1     1     1    1.9000E+01  2.1427E-01   1.8786E+01  0.000E+00  0.000E+00  0.000E+00  1.09413E+03  1.082E+00  1.166E+01  5.249E-02  1.361E+00
   1    2    2     1     2    1.8786E+01  3.3054E-01   1.8455E+01  0.000E+00  0.000E+00  0.000E+00  1.08914E+03  1.077E+00  1.158E+01  8.107E-02  1.359E+00
   1    3    3     1     3    1.8455E+01  2.8064E-01   1.8175E+01  0.000E+00  0.000E+00  0.000E+00  1.08349E+03  1.072E+00  1.149E+01  6.892E-02  1.357E+00
   1    3    4     1     4    1.8175E+01  2.5740E-01   1.7917E+01  0.000E+00  0.000E+00  0.000E+00  1.07848E+03  1.068E+00  1.140E+01  6.328E-02  1.356E+00
   1    4    5     2     1    1.5917E+01  3.0542E-01   1.5612E+01  0.000E+00  0.000E+00  0.000E+00  1.07285E+03  9.157E-01  1.200E+01  7.800E-02  1.305E+00
   1    5    6     2     2    1.5612E+01  2.3438E-01   1.5377E+01  0.000E+00  0.000E+00  0.000E+00  1.06742E+03  9.063E-01  1.200E+01  6.000E-02  1.302E+00
   1    6    6     2     3    1.5377E+01  2.3388E-01   1.5143E+01  0.000E+00  0.000E+00  0.000E+00  1.06269E+03  8.980E-01  1.200E+01  6.000E-02  1.299E+00
   1    7    6     2     4    1.5143E+01  2.3338E-01   1.4910E+01  0.000E+00  0.000E+00  0.000E+00  1.05797E+03  8.897E-01  1.200E+01  6.000E-02  1.297E+00
   1    8    6     2     5    1.4910E+01  2.3289E-01   1.4677E+01  0.000E+00  0.000E+00  0.000E+00  1.05324E+03  8.814E-01  1.200E+01  6.000E-02  1.294E+00
   1    3    5     3     1    2.0000E+00  2.8252E-01   1.7175E+00  0.000E+00  0.000E+00  0.000E+00  1.07555E+03  1.909E+00  9.636E+00  7.227E-02  1.955E+00
   1    3    6     3     2    1.7175E+00  2.4905E-01   1.4684E+00  0.000E+00  0.000E+00  0.000E+00  1.07264E+03  1.727E+00  8.909E+00  6.682E-02  1.864E+00
   1    3    7     3     3    1.4684E+00  1.9718E-01   1.2712E+00  0.000E+00  0.000E+00  0.000E+00  1.06987E+03  1.555E+00  8.218E+00  5.547E-02  1.777E+00
   1    4    8     3     4    1.2712E+00  2.2567E-01   1.0456E+00  0.000E+00  0.000E+00  0.000E+00  1.06682E+03  1.364E+00  7.455E+00  6.709E-02  1.682E+00
   1    5    8     3     5    1.0456E+00  1.5790E-01   8.8768E-01  0.000E+00  0.000E+00  0.000E+00  1.06362E+03  1.164E+00  6.655E+00  4.991E-02  1.582E+00
   1    6    8     3     6    8.8768E-01  5.5980E-02   8.3170E-01  0.000E+00  0.000E+00  0.000E+00  1.06158E+03  1.036E+00  6.145E+00  1.844E-02  1.518E+00
   1    5   10     4     1    1.0000E+01  9.0919E-02   9.9091E+00  0.000E+00  0.000E+00  0.000E+00  1.07836E+03  6.368E-01  1.000E+01  2.500E-02  1.212E+00
   1    5    9     4     2    9.9091E+00  1.8158E-01   9.7275E+00  0.000E+00  0.000E+00  0.000E+00  1.07154E+03  6.315E-01  1.000E+01  5.000E-02  1.211E+00
   1    6    8     4     3    9.7275E+00  1.2689E-01   9.6006E+00  0.000E+00  0.000E+00  0.000E+00  1.06381E+03  6.256E-01  1.000E+01  3.500E-02  1.209E+00
   1    6    8     5     1    1.0432E+01  2.2686E-01   1.0205E+01  0.000E+00  0.000E+00  0.000E+00  1.05868E+03  6.790E-01  1.542E+01  6.166E-02  1.226E+00
   1    7    7     5     2    1.0205E+01  2.7894E-01   9.9265E+00  0.000E+00  0.000E+00  0.000E+00  1.05417E+03  6.732E-01  1.519E+01  7.594E-02  1.224E+00
   1    8    7     5     3    9.9265E+00  1.9221E-01   9.7343E+00  0.000E+00  0.000E+00  0.000E+00  1.04992E+03  6.676E-01  1.497E+01  5.241E-02  1.223E+00
   1    8    6     5     4    9.7343E+00  1.3577E-01   9.5985E+00  0.000E+00  0.000E+00  0.000E+00  1.04691E+03  6.637E-01  1.482E+01  3.706E-02  1.221E+00
   1    9    6     6     1    2.4276E+01  2.5176E-01   2.4024E+01  0.000E+00  0.000E+00  0.000E+00  1.04392E+03  1.196E+00  1.200E+01  6.000E-02  1.399E+00
   1   10    7     6     2    2.4024E+01  2.5131E-01   2.3773E+01  0.000E+00  0.000E+00  0.000E+00  1.03937E+03  1.188E+00  1.200E+01  6.000E-02  1.396E+00
   1   11    7     6     3    2.3773E+01  2.5086E-01   2.3522E+01  0.000E+00  0.000E+00  0.000E+00  1.03482E+03  1.181E+00  1.200E+01  6.000E-02  1.394E+00
   1   12    7     6     4    2.3522E+01  2.5041E-01   2.3271E+01  0.000E+00  0.000E+00  0.000E+00  1.03026E+03  1.173E+00  1.200E+01  6.000E-02  1.391E+00
   1   13    7     6     5    2.3271E+01  4.0863E-03   2.3267E+01  0.000E+00  0.000E+00  0.000E+00  1.02708E+03  1.170E+00  1.200E+01  2.400E-02  5.675E-02
   1   14    9     7     1    1.5000E+02  1.3400E+00   1.4866E+02  0.000E+00  0.000E+00  0.000E+00  1.03987E+03  2.288E+00  5.529E+01  5.593E-01  7.986E-01
   1   13    8     7     2    1.4866E+02  1.8712E+00   1.4679E+02  0.000E+00  0.000E+00  0.000E+00  1.03478E+03  2.279E+00  5.526E+01  6.148E-01  1.015E+00
   1   13    7     7     3    1.4679E+02  1.5530E+00   1.4524E+02  0.000E+00  0.000E+00  0.000E+00  1.02969E+03  2.270E+00  5.522E+01  5.584E-01  9.270E-01
   1   13    6     8     1    1.6850E+02  1.0034E+00   1.6750E+02  0.000E+00  0.000E+00  0.000E+00  1.02481E+03  2.939E+00  4.262E+01  4.343E-01  7.702E-01
   1   13    5     8     2    1.6750E+02  2.6043E-01   1.6724E+02  0.000E+00  0.000E+00  0.000E+00  1.01856E+03  2.935E+00  4.256E+01  4.337E-01  2.002E-01
   1   13    4     8     3    1.6724E+02 -2.1351E+00   1.6937E+02  0.000E+00  0.000E+00  0.000E+00  1.01232E+03  2.941E+00  4.265E+01  4.346E+00 -1.638E-01
   1   13    3     8     4    1.6937E+02 -3.5129E+00   1.7289E+02  0.000E+00  0.000E+00  0.000E+00  1.00608E+03  2.960E+00  4.291E+01  4.373E+00 -2.678E-01
   1   13    2     8     5    1.7289E+02 -2.5511E+00   1.7544E+02  0.000E+00  0.000E+00  0.000E+00  9.99854E+02  2.979E+00  4.320E+01  4.402E+00 -1.932E-01
   1   13    1     8     6    1.7544E+02 -1.9786E+00   1.7742E+02  0.000E+00  0.000E+00  0.000E+00  9.94869E+02  2.994E+00  4.341E+01  2.654E+00 -2.485E-01





UNSATURATED ZONE PACKAGE VOLUMETRIC BUDGET FOR  TIME STEP    30 STRESS PERIOD   27
  ------------------------------------------------------------------------------



     CUMULATIVE VOLUMES      L**3       RATES FOR THIS TIME STEP      L**3/T
     ------------------                 ------------------------

           IN:                                      IN:
           ---                                      ---
        INFILTRATION =  1097513464.8831          INFILTRATION =           4.4075

          OUT:                                     OUT:
          ----                                     ----
              UZF ET =  1002291438.4614                UZF ET =           0.7250
        UZF RECHARGE =      797698.7981          UZF RECHARGE =       0.0000E+00

            IN - OUT =    94424327.6236              IN - OUT =           3.6825

          STORAGE:                                 STORAGE:
          --------                                 --------
      STORAGE CHANGE =    94425266.6991        STORAGE CHANGE =           3.6825

 PERCENT DISCREPANCY IS DIFFERENCE BETWEEN IN-OUT MINUS CHANGE IN STORAGE
 DIVIDED BY THE AVERAGE OF IN AND OUT TIMES 100

 PERCENT DISCREPANCY =          -0.00     PERCENT DISCREPANCY =           0.00






1
  VOLUMETRIC BUDGET FOR AGRICULTURAL FIELDS AT TIME STEP   30, STRESS PERIOD  27
  ------------------------------------------------------------------------------

     CUMULATIVE VOLUMES      L**3       RATES FOR THIS TIME STEP      L**3/T
     ------------------                 ------------------------

           IN:                                      IN:
           ---                                      ---
               AG WELLS  =   796055104.0000                 AG WELLS  =           0.0000
      DIVERSION SEGMENTS =           0.0000        DIVERSION SEGMENTS =           0.0000
           GW IRRIGATION =           0.0000             GW IRRIGATION =           0.0000
           SW IRRIGATION =           0.0000             SW IRRIGATION =           0.0000
        SYSTEM LOSSES GW =           0.0000          SYSTEM LOSSES GW =           0.0000
        SYSTEM LOSSES SW =           0.0000          SYSTEM LOSSES SW =           0.0000

                TOTAL IN =   796055104.0000                  TOTAL IN =           0.0000

          OUT:                                     OUT:
          ----                                     ----
               AG WELLS  =           0.0000                 AG WELLS  =           0.0000
      DIVERSION SEGMENTS =           0.0000        DIVERSION SEGMENTS =           0.0000
           GW IRRIGATION =   796055104.0000             GW IRRIGATION =           0.0000
           SW IRRIGATION =           0.0000             SW IRRIGATION =           0.0000
        SYSTEM LOSSES GW =           0.0000          SYSTEM LOSSES GW =           0.0000
        SYSTEM LOSSES SW =           0.0000          SYSTEM LOSSES SW =           0.0000

               TOTAL OUT =   796055104.0000                 TOTAL OUT =           0.0000

                IN - OUT =           0.0000                  IN - OUT =           0.0000

     PERCENT DISCREPANCY =           0.00         PERCENT DISCREPANCY =           0.00



1
  VOLUMETRIC BUDGET FOR ENTIRE MODEL AT END OF TIME STEP   30, STRESS PERIOD  27
  ------------------------------------------------------------------------------

     CUMULATIVE VOLUMES      L**3       RATES FOR THIS TIME STEP      L**3/T
     ------------------                 ------------------------

           IN:                                      IN:
           ---                                      ---
             STORAGE     =  1116415616.0000               STORAGE     =           5.3463
       CONSTANT HEAD     =           0.0000         CONSTANT HEAD     =           0.0000
     HEAD DEP BOUNDS     =    19547694.0000       HEAD DEP BOUNDS     =           0.2860
      STREAM LEAKAGE     =   846127680.0000        STREAM LEAKAGE     =          11.7608
        UZF RECHARGE     =      797698.6250          UZF RECHARGE     =           0.0000
               GW ET     =           0.0000                 GW ET     =           0.0000
     SURFACE LEAKAGE     =           0.0000       SURFACE LEAKAGE     =           0.0000
           AG WELLS      =           0.0000             AG WELLS      =           0.0000

                TOTAL IN =  1982888704.0000                  TOTAL IN =          17.3932

          OUT:                                     OUT:
          ----                                     ----
             STORAGE     =   438652544.0000               STORAGE     =           6.9267
       CONSTANT HEAD     =           0.0000         CONSTANT HEAD     =           0.0000
     HEAD DEP BOUNDS     =    20108686.0000       HEAD DEP BOUNDS     =           0.2893
      STREAM LEAKAGE     =   710731008.0000        STREAM LEAKAGE     =          10.1776
        UZF RECHARGE     =           0.0000          UZF RECHARGE     =           0.0000
               GW ET     =    17343536.0000                 GW ET     =           0.0000
     SURFACE LEAKAGE     =           0.0000       SURFACE LEAKAGE     =           0.0000
           AG WELLS      =   796055104.0000             AG WELLS      =           0.0000

               TOTAL OUT =  1982890752.0000                 TOTAL OUT =          17.3936

                IN - OUT =       -2048.0000                  IN - OUT =      -4.4823E-04

     PERCENT DISCREPANCY =          -0.00         PERCENT DISCREPANCY =          -0.00






         TIME SUMMARY AT END OF TIME STEP   30 IN STRESS PERIOD   27
                    SECONDS     MINUTES      HOURS       DAYS        YEARS
                    -----------------------------------------------------------
   TIME STEP LENGTH  87667.      1461.1      24.352      1.0147     2.77799E-03
 STRESS PERIOD TIME 2.63000E+06  43833.      730.56      30.440     8.33397E-02
         TOTAL TIME 6.84668E+07 1.14111E+06  19019.      792.44      2.1696    
1
1
                            STRESS PERIOD NO.   28, LENGTH =   2630000.    
                            -----------------------------------------------

                              NUMBER OF TIME STEPS =    30

                               MULTIPLIER FOR DELT =     1.000

                            INITIAL TIME STEP SIZE =   87666.66    

 REUSING NON-PARAMETER GHB CELLS FROM LAST STRESS PERIOD

      2 GHB CELLS

 REUSING STREAM SEGMENT DATA FROM LAST STRESS PERIOD



            AREAL INFILTRATION RATE
 READING ON UNIT   19 WITH FORMAT: (10F4.0)            

            1           2           3           4           5           6           7           8           9          10
 ........................................................................................................................
   1   1.2000E-09   0.000       0.000       0.000       0.000       0.000       0.000       0.000       0.000       0.000    
   2   2.1000E-09  2.0000E-09  8.0000E-10  8.5000E-09   0.000       0.000       0.000       0.000       0.000       0.000    
   3   5.0000E-10  1.1000E-09  8.8000E-09  5.5000E-09   0.000       0.000       0.000       0.000       0.000       0.000    
   4   8.5000E-09  1.1000E-09  1.1000E-09  1.1000E-09  2.0000E-09   0.000       0.000       0.000       0.000       0.000    
   5   8.5000E-09  1.1000E-09  1.1000E-09  1.1000E-09  1.1000E-09   0.000       0.000       0.000       0.000       0.000    
   6   8.5000E-09  5.2000E-09  2.1000E-09  1.1000E-09  1.5000E-09   0.000       0.000       0.000       0.000       0.000    
   7   8.5000E-09  5.2000E-09  2.1000E-09  1.2000E-09  2.0000E-09   0.000       0.000       0.000       0.000       0.000    
   8   5.0000E-10  5.2000E-09  2.1000E-09  1.2000E-09  5.0000E-09   0.000       0.000       0.000       0.000       0.000    
   9   5.0000E-10  5.2000E-09  2.1000E-09  1.2000E-09  5.0000E-09   0.000       0.000       0.000       0.000       0.000    
  10   5.0000E-10  5.2000E-09  2.1000E-09  1.2000E-09  5.8000E-09   0.000       0.000       0.000       0.000       0.000    
  11   1.0000E-10  1.1000E-09  1.1000E-09  1.2000E-09  5.0000E-09   0.000       0.000       0.000       0.000       0.000    
  12   1.1000E-09  1.1000E-09  1.1000E-09  1.1000E-09  2.0000E-09   0.000       0.000       0.000       0.000       0.000    
  13   1.1000E-09  2.2000E-09  2.2000E-09  2.1000E-09  1.0000E-09   0.000       0.000       0.000       0.000       0.000    
  14   2.0000E-10  5.5000E-09  5.5000E-09  5.2000E-09  1.0000E-09   0.000       0.000       0.000       0.000       0.000    
  15    0.000      8.8000E-09  8.8000E-09   0.000       0.000       0.000       0.000       0.000       0.000       0.000    

                  ET RATE =  5.000000E-10

 USING ET EXTINCTION DEPTH FROM PREVIOUS STRESS PERIOD. CURRENT PERIOD IS:      28

 USING EXTINCTION WATER CONTENT FROM PREVIOUS STRESS PERIOD. CURRENT PERIOD IS:      28

 USING AIR ENTRY PRESSURE FROM PREVIOUS STRESS PERIOD. CURRENT PERIOD IS:      28

 USING ROOT PRESSURE HEAD FROM PREVIOUS STRESS PERIOD. CURRENT PERIOD IS:      28

 USING ROOT ACTIVITY FROM PREVIOUS STRESS PERIOD. CURRENT PERIOD IS:      28

 PROCESSING AG STRESS PERIOD DATA

 READING AG STRESS PERIOD DATA

 READING IRRIGATION WELL

 END PROCESSING AG STRESS PERIOD DATA OPTIONS
 
 SOLVING FOR HEAD 
                                                   Max.-Head-Change                         Max.-Flux-Residual
  Residual-Control   Outer-Iter.   Inner-Iter.     Column Row Layer    Maximum-Head-Change  Column Row Layer    Maximum-Flux-Residual          L2-NORM 
          0                 1           2             4    7     1       0.1318069521E-01       4    7    1         0.6906102635E+00      0.1813547582E+01
          0                 2           2             4    7     1      -0.1282125532E-02       4    7    1        -0.6906124858E-01      0.1813533144E+00
          0                 3           1             4    7     1       0.8730796561E-04       4    7    1         0.4834287384E-02      0.1269458892E-01

    ------------------------------------------------
       NWT REQUIRED            3 OUTER ITERATIONS 
       AND A TOTAL OF          5 INNER ITERATIONS.
    ------------------------------------------------

 NO OUTPUT CONTROL FOR STRESS PERIOD   28   TIME STEP    1
 
 SOLVING FOR HEAD 
                                                   Max.-Head-Change                         Max.-Flux-Residual
  Residual-Control   Outer-Iter.   Inner-Iter.     Column Row Layer    Maximum-Head-Change  Column Row Layer    Maximum-Flux-Residual          L2-NORM 
          0                 1           2             4    7     1       0.1307122122E-01       4    7    1         0.6848463242E+00      0.1801904649E+01
          0                 2           2             4    7     1      -0.1271476631E-02       4    7    1        -0.6848485012E-01      0.1801890212E+00
          0                 3           1             4    7     1       0.8658281598E-04       4    7    1         0.4793939540E-02      0.1261307945E-01

    ------------------------------------------------
       NWT REQUIRED            3 OUTER ITERATIONS 
       AND A TOTAL OF          5 INNER ITERATIONS.
    ------------------------------------------------

 NO OUTPUT CONTROL FOR STRESS PERIOD   28   TIME STEP    2
 
 SOLVING FOR HEAD 
                                                   Max.-Head-Change                         Max.-Flux-Residual
  Residual-Control   Outer-Iter.   Inner-Iter.     Column Row Layer    Maximum-Head-Change  Column Row Layer    Maximum-Flux-Residual          L2-NORM 
          0                 1           2             4    7     1       0.1296326895E-01       4    7    1         0.6791629033E+00      0.1790401462E+01
          0                 2           2             4    7     1      -0.1260975753E-02       4    7    1        -0.6791650362E-01      0.1790387039E+00
          0                 3           1             4    7     1       0.8586774544E-04       4    7    1         0.4754155287E-02      0.1253256662E-01

    ------------------------------------------------
       NWT REQUIRED            3 OUTER ITERATIONS 
       AND A TOTAL OF          5 INNER ITERATIONS.
    ------------------------------------------------

 NO OUTPUT CONTROL FOR STRESS PERIOD   28   TIME STEP    3
 
 SOLVING FOR HEAD 
                                                   Max.-Head-Change                         Max.-Flux-Residual
  Residual-Control   Outer-Iter.   Inner-Iter.     Column Row Layer    Maximum-Head-Change  Column Row Layer    Maximum-Flux-Residual          L2-NORM 
          0                 1           2             4    7     1       0.1285666955E-01       4    7    1         0.6735510396E+00      0.1779024964E+01
          0                 2           2             4    7     1      -0.1250606474E-02       4    7    1        -0.6735531296E-01      0.1779010812E+00
          0                 3           1             4    7     1       0.8516163665E-04       4    7    1         0.4714871964E-02      0.1245295725E-01

    ------------------------------------------------
       NWT REQUIRED            3 OUTER ITERATIONS 
       AND A TOTAL OF          5 INNER ITERATIONS.
    ------------------------------------------------

 NO OUTPUT CONTROL FOR STRESS PERIOD   28   TIME STEP    4
 
 SOLVING FOR HEAD 
                                                   Max.-Head-Change                         Max.-Flux-Residual
  Residual-Control   Outer-Iter.   Inner-Iter.     Column Row Layer    Maximum-Head-Change  Column Row Layer    Maximum-Flux-Residual          L2-NORM 
          0                 1           2             4    7     1       0.1275152827E-01       4    7    1         0.6680166614E+00      0.1767775222E+01
          0                 2           2             4    7     1      -0.1240379033E-02       4    7    1        -0.6680187095E-01      0.1767767673E+00
          0                 3           1             4    7     1       0.8446518626E-04       4    7    1         0.4676131040E-02      0.1237424051E-01

    ------------------------------------------------
       NWT REQUIRED            3 OUTER ITERATIONS 
       AND A TOTAL OF          5 INNER ITERATIONS.
    ------------------------------------------------

 NO OUTPUT CONTROL FOR STRESS PERIOD   28   TIME STEP    5
 
 SOLVING FOR HEAD 
                                                   Max.-Head-Change                         Max.-Flux-Residual
  Residual-Control   Outer-Iter.   Inner-Iter.     Column Row Layer    Maximum-Head-Change  Column Row Layer    Maximum-Flux-Residual          L2-NORM 
          0                 1           2             4    7     1       0.1264768441E-01       4    7    1         0.6625505429E+00      0.1756647083E+01
          0                 2           2             4    7     1      -0.1230277797E-02       4    7    1        -0.6625525505E-01      0.1756632796E+00
          0                 3           1             4    7     1       0.8377733019E-04       4    7    1         0.4637867948E-02      0.1229627291E-01

    ------------------------------------------------
       NWT REQUIRED            3 OUTER ITERATIONS 
       AND A TOTAL OF          5 INNER ITERATIONS.
    ------------------------------------------------

 NO OUTPUT CONTROL FOR STRESS PERIOD   28   TIME STEP    6
 
 SOLVING FOR HEAD 
                                                   Max.-Head-Change                         Max.-Flux-Residual
  Residual-Control   Outer-Iter.   Inner-Iter.     Column Row Layer    Maximum-Head-Change  Column Row Layer    Maximum-Flux-Residual          L2-NORM 
          0                 1           2             4    7     1       0.1254511382E-01       4    7    1         0.6571516931E+00      0.1745646833E+01
          0                 2           2             4    7     1      -0.1220300416E-02       4    7    1        -0.6571536607E-01      0.1745632672E+00
          0                 3           1             4    7     1       0.8309790796E-04       4    7    1         0.4600075739E-02      0.1221929490E-01

    ------------------------------------------------
       NWT REQUIRED            3 OUTER ITERATIONS 
       AND A TOTAL OF          5 INNER ITERATIONS.
    ------------------------------------------------

 NO OUTPUT CONTROL FOR STRESS PERIOD   28   TIME STEP    7
 
 SOLVING FOR HEAD 
                                                   Max.-Head-Change                         Max.-Flux-Residual
  Residual-Control   Outer-Iter.   Inner-Iter.     Column Row Layer    Maximum-Head-Change  Column Row Layer    Maximum-Flux-Residual          L2-NORM 
          0                 1           2             4    7     1       0.1244392082E-01       4    7    1         0.6518262014E+00      0.1734762350E+01
          0                 2           2             4    7     1      -0.1210457039E-02       4    7    1        -0.6518281304E-01      0.1734748420E+00
          0                 3           1             4    7     1       0.8242761104E-04       4    7    1         0.4562797055E-02      0.1214311700E-01

    ------------------------------------------------
       NWT REQUIRED            3 OUTER ITERATIONS 
       AND A TOTAL OF          5 INNER ITERATIONS.
    ------------------------------------------------

 NO OUTPUT CONTROL FOR STRESS PERIOD   28   TIME STEP    8
 
 SOLVING FOR HEAD 
                                                   Max.-Head-Change                         Max.-Flux-Residual
  Residual-Control   Outer-Iter.   Inner-Iter.     Column Row Layer    Maximum-Head-Change  Column Row Layer    Maximum-Flux-Residual          L2-NORM 
          0                 1           2             4    7     1       0.1234394603E-01       4    7    1         0.6465647938E+00      0.1723993875E+01
          0                 2           2             4    7     1      -0.1200732162E-02       4    7    1        -0.6465666850E-01      0.1723979799E+00
          0                 3           1             4    7     1       0.8176538396E-04       4    7    1         0.4525966963E-02      0.1206771012E-01

    ------------------------------------------------
       NWT REQUIRED            3 OUTER ITERATIONS 
       AND A TOTAL OF          5 INNER ITERATIONS.
    ------------------------------------------------

 NO OUTPUT CONTROL FOR STRESS PERIOD   28   TIME STEP    9
 
 SOLVING FOR HEAD 
                                                   Max.-Head-Change                         Max.-Flux-Residual
  Residual-Control   Outer-Iter.   Inner-Iter.     Column Row Layer    Maximum-Head-Change  Column Row Layer    Maximum-Flux-Residual          L2-NORM 
          0                 1           2             4    7     1       0.1224530303E-01       4    7    1         0.6413738901E+00      0.1713350292E+01
          0                 2           2             4    7     1      -0.1191136833E-02       4    7    1        -0.6413757444E-01      0.1713335575E+00
          0                 3           1             4    7     1       0.8111197793E-04       4    7    1         0.4489630393E-02      0.1199322630E-01

    ------------------------------------------------
       NWT REQUIRED            3 OUTER ITERATIONS 
       AND A TOTAL OF          5 INNER ITERATIONS.
    ------------------------------------------------

 NO OUTPUT CONTROL FOR STRESS PERIOD   28   TIME STEP   10
 
 SOLVING FOR HEAD 
                                                   Max.-Head-Change                         Max.-Flux-Residual
  Residual-Control   Outer-Iter.   Inner-Iter.     Column Row Layer    Maximum-Head-Change  Column Row Layer    Maximum-Flux-Residual          L2-NORM 
          0                 1           2             4    7     1       0.1214795927E-01       4    7    1         0.6362520381E+00      0.1702818322E+01
          0                 2           2             4    7     1      -0.1181667887E-02       4    7    1        -0.6362538566E-01      0.1702804512E+00
          0                 3           1             4    7     1       0.8046717840E-04       4    7    1         0.4453777206E-02      0.1191949098E-01

    ------------------------------------------------
       NWT REQUIRED            3 OUTER ITERATIONS 
       AND A TOTAL OF          5 INNER ITERATIONS.
    ------------------------------------------------

 NO OUTPUT CONTROL FOR STRESS PERIOD   28   TIME STEP   11
 
 SOLVING FOR HEAD 
                                                   Max.-Head-Change                         Max.-Flux-Residual
  Residual-Control   Outer-Iter.   Inner-Iter.     Column Row Layer    Maximum-Head-Change  Column Row Layer    Maximum-Flux-Residual          L2-NORM 
          0                 1           2             4    7     1       0.1205175701E-01       4    7    1         0.6311902065E+00      0.1692409643E+01
          0                 2           2             4    7     1      -0.1172309978E-02       4    7    1        -0.6311919897E-01      0.1692395775E+00
          0                 3           1             4    7     1       0.7982993988E-04       4    7    1         0.4418344154E-02      0.1184664646E-01

    ------------------------------------------------
       NWT REQUIRED            3 OUTER ITERATIONS 
       AND A TOTAL OF          5 INNER ITERATIONS.
    ------------------------------------------------

 NO OUTPUT CONTROL FOR STRESS PERIOD   28   TIME STEP   12
 
 SOLVING FOR HEAD 
                                                   Max.-Head-Change                         Max.-Flux-Residual
  Residual-Control   Outer-Iter.   Inner-Iter.     Column Row Layer    Maximum-Head-Change  Column Row Layer    Maximum-Flux-Residual          L2-NORM 
          0                 1           2             4    7     1       0.1195667581E-01       4    7    1         0.6261875596E+00      0.1682104642E+01
          0                 2           2             4    7     1      -0.1163061119E-02       4    7    1        -0.6261893086E-01      0.1682090950E+00
          0                 3           1             4    7     1       0.7920012721E-04       4    7    1         0.4383325393E-02      0.1177449598E-01

    ------------------------------------------------
       NWT REQUIRED            3 OUTER ITERATIONS 
       AND A TOTAL OF          5 INNER ITERATIONS.
    ------------------------------------------------

 NO OUTPUT CONTROL FOR STRESS PERIOD   28   TIME STEP   13
 
 SOLVING FOR HEAD 
                                                   Max.-Head-Change                         Max.-Flux-Residual
  Residual-Control   Outer-Iter.   Inner-Iter.     Column Row Layer    Maximum-Head-Change  Column Row Layer    Maximum-Flux-Residual          L2-NORM 
          0                 1           2             4    7     1       0.1186282895E-01       4    7    1         0.6212503806E+00      0.1671908972E+01
          0                 2           2             4    7     1      -0.1153932328E-02       4    7    1        -0.6212520961E-01      0.1671895271E+00
          0                 3           1             4    7     1       0.7857849055E-04       4    7    1         0.4348764917E-02      0.1170313334E-01

    ------------------------------------------------
       NWT REQUIRED            3 OUTER ITERATIONS 
       AND A TOTAL OF          5 INNER ITERATIONS.
    ------------------------------------------------

 NO OUTPUT CONTROL FOR STRESS PERIOD   28   TIME STEP   14
 
 SOLVING FOR HEAD 
                                                   Max.-Head-Change                         Max.-Flux-Residual
  Residual-Control   Outer-Iter.   Inner-Iter.     Column Row Layer    Maximum-Head-Change  Column Row Layer    Maximum-Flux-Residual          L2-NORM 
          0                 1           2             4    7     1       0.1177019427E-01       4    7    1         0.6163771999E+00      0.1661829311E+01
          0                 2           2             4    7     1      -0.1144921451E-02       4    7    1        -0.6163788826E-01      0.1661816077E+00
          0                 3           1             4    7     1       0.7796488409E-04       4    7    1         0.4314652447E-02      0.1163269382E-01

    ------------------------------------------------
       NWT REQUIRED            3 OUTER ITERATIONS 
       AND A TOTAL OF          5 INNER ITERATIONS.
    ------------------------------------------------

 NO OUTPUT CONTROL FOR STRESS PERIOD   28   TIME STEP   15
 
 SOLVING FOR HEAD 
                                                   Max.-Head-Change                         Max.-Flux-Residual
  Residual-Control   Outer-Iter.   Inner-Iter.     Column Row Layer    Maximum-Head-Change  Column Row Layer    Maximum-Flux-Residual          L2-NORM 
          0                 1           2             4    7     1       0.1167861018E-01       4    7    1         0.6115595255E+00      0.1651854058E+01
          0                 2           2             4    7     1      -0.1136012769E-02       4    7    1        -0.6115611764E-01      0.1651840486E+00
          0                 3           1             4    7     1       0.7735823629E-04       4    7    1         0.4280928517E-02      0.1156275219E-01

    ------------------------------------------------
       NWT REQUIRED            3 OUTER ITERATIONS 
       AND A TOTAL OF          5 INNER ITERATIONS.
    ------------------------------------------------

 NO OUTPUT CONTROL FOR STRESS PERIOD   28   TIME STEP   16
 
 SOLVING FOR HEAD 
                                                   Max.-Head-Change                         Max.-Flux-Residual
  Residual-Control   Outer-Iter.   Inner-Iter.     Column Row Layer    Maximum-Head-Change  Column Row Layer    Maximum-Flux-Residual          L2-NORM 
          0                 1           2             4    7     1       0.1158819356E-01       4    7    1         0.6068036658E+00      0.1641982164E+01
          0                 2           2             4    7     1      -0.1127217652E-02       4    7    1        -0.6068052857E-01      0.1641968766E+00
          0                 3           1             4    7     1       0.7675932168E-04       4    7    1         0.4247637293E-02      0.1149362770E-01

    ------------------------------------------------
       NWT REQUIRED            3 OUTER ITERATIONS 
       AND A TOTAL OF          5 INNER ITERATIONS.
    ------------------------------------------------

 NO OUTPUT CONTROL FOR STRESS PERIOD   28   TIME STEP   17
 
 SOLVING FOR HEAD 
                                                   Max.-Head-Change                         Max.-Flux-Residual
  Residual-Control   Outer-Iter.   Inner-Iter.     Column Row Layer    Maximum-Head-Change  Column Row Layer    Maximum-Flux-Residual          L2-NORM 
          0                 1           2             4    7     1       0.1149892132E-01       4    7    1         0.6021083377E+00      0.1632217391E+01
          0                 2           2             4    7     1      -0.1118533852E-02       4    7    1        -0.6021099272E-01      0.1632204054E+00
          0                 3           1             4    7     1       0.7616798807E-04       4    7    1         0.4214769819E-02      0.1142525941E-01

    ------------------------------------------------
       NWT REQUIRED            3 OUTER ITERATIONS 
       AND A TOTAL OF          5 INNER ITERATIONS.
    ------------------------------------------------

 NO OUTPUT CONTROL FOR STRESS PERIOD   28   TIME STEP   18
 
 SOLVING FOR HEAD 
                                                   Max.-Head-Change                         Max.-Flux-Residual
  Residual-Control   Outer-Iter.   Inner-Iter.     Column Row Layer    Maximum-Head-Change  Column Row Layer    Maximum-Flux-Residual          L2-NORM 
          0                 1           2             4    7     1       0.1141063468E-01       4    7    1         0.5974649997E+00      0.1622556061E+01
          0                 2           2             4    7     1      -0.1109945925E-02       4    7    1        -0.5974665596E-01      0.1622542929E+00
          0                 3           1             4    7     1       0.7558318226E-04       4    7    1         0.4182266259E-02      0.1135764827E-01

    ------------------------------------------------
       NWT REQUIRED            3 OUTER ITERATIONS 
       AND A TOTAL OF          5 INNER ITERATIONS.
    ------------------------------------------------

 NO OUTPUT CONTROL FOR STRESS PERIOD   28   TIME STEP   19
 
 SOLVING FOR HEAD 
                                                   Max.-Head-Change                         Max.-Flux-Residual
  Residual-Control   Outer-Iter.   Inner-Iter.     Column Row Layer    Maximum-Head-Change  Column Row Layer    Maximum-Flux-Residual          L2-NORM 
          0                 1           2             4    7     1       0.1132345550E-01       4    7    1         0.5928801072E+00      0.1612997337E+01
          0                 2           2             4    7     1      -0.1101465725E-02       4    7    1        -0.5928816381E-01      0.1612984020E+00
          0                 3           1             4    7     1       0.7500571273E-04       4    7    1         0.4150171821E-02      0.1129074870E-01

    ------------------------------------------------
       NWT REQUIRED            3 OUTER ITERATIONS 
       AND A TOTAL OF          5 INNER ITERATIONS.
    ------------------------------------------------

 NO OUTPUT CONTROL FOR STRESS PERIOD   28   TIME STEP   20
 
 SOLVING FOR HEAD 
                                                   Max.-Head-Change                         Max.-Flux-Residual
  Residual-Control   Outer-Iter.   Inner-Iter.     Column Row Layer    Maximum-Head-Change  Column Row Layer    Maximum-Flux-Residual          L2-NORM 
          0                 1           2             4    7     1       0.1123736051E-01       4    7    1         0.5883526352E+00      0.1603537716E+01
          0                 2           2             4    7     1      -0.1093090989E-02       4    7    1        -0.5883541380E-01      0.1603524532E+00
          0                 3           1             4    7     1       0.7443542458E-04       4    7    1         0.4118479335E-02      0.1122454006E-01

    ------------------------------------------------
       NWT REQUIRED            3 OUTER ITERATIONS 
       AND A TOTAL OF          5 INNER ITERATIONS.
    ------------------------------------------------

 NO OUTPUT CONTROL FOR STRESS PERIOD   28   TIME STEP   21
 
 SOLVING FOR HEAD 
                                                   Max.-Head-Change                         Max.-Flux-Residual
  Residual-Control   Outer-Iter.   Inner-Iter.     Column Row Layer    Maximum-Head-Change  Column Row Layer    Maximum-Flux-Residual          L2-NORM 
          0                 1           2             4    7     1       0.1115219174E-01       4    7    1         0.5838740318E+00      0.1594174495E+01
          0                 2           2             4    7     1      -0.1084806348E-02       4    7    1        -0.5838755067E-01      0.1594161692E+00
          0                 3           1             4    7     1       0.7387127135E-04       4    7    1         0.4087128908E-02      0.1115903573E-01

    ------------------------------------------------
       NWT REQUIRED            3 OUTER ITERATIONS 
       AND A TOTAL OF          5 INNER ITERATIONS.
    ------------------------------------------------

 NO OUTPUT CONTROL FOR STRESS PERIOD   28   TIME STEP   22
 
 SOLVING FOR HEAD 
                                                   Max.-Head-Change                         Max.-Flux-Residual
  Residual-Control   Outer-Iter.   Inner-Iter.     Column Row Layer    Maximum-Head-Change  Column Row Layer    Maximum-Flux-Residual          L2-NORM 
          0                 1           2             4    7     1       0.1106820445E-01       4    7    1         0.5794581406E+00      0.1584909145E+01
          0                 2           2             4    7     1      -0.1076636635E-02       4    7    1        -0.5794595886E-01      0.1584895918E+00
          0                 3           1             4    7     1       0.7331494455E-04       4    7    1         0.4056217500E-02      0.1109414459E-01

    ------------------------------------------------
       NWT REQUIRED            3 OUTER ITERATIONS 
       AND A TOTAL OF          5 INNER ITERATIONS.
    ------------------------------------------------

 NO OUTPUT CONTROL FOR STRESS PERIOD   28   TIME STEP   23
 
 SOLVING FOR HEAD 
                                                   Max.-Head-Change                         Max.-Flux-Residual
  Residual-Control   Outer-Iter.   Inner-Iter.     Column Row Layer    Maximum-Head-Change  Column Row Layer    Maximum-Flux-Residual          L2-NORM 
          0                 1           2             4    7     1       0.1098510435E-01       4    7    1         0.5750888177E+00      0.1575723844E+01
          0                 2           2             4    7     1      -0.1068553222E-02       4    7    1        -0.5750902393E-01      0.1575725875E+00
          0                 3           1             4    7     1       0.7276449424E-04       4    7    1         0.4025632069E-02      0.1103010465E-01

    ------------------------------------------------
       NWT REQUIRED            3 OUTER ITERATIONS 
       AND A TOTAL OF          5 INNER ITERATIONS.
    ------------------------------------------------

 NO OUTPUT CONTROL FOR STRESS PERIOD   28   TIME STEP   24
 
 SOLVING FOR HEAD 
                                                   Max.-Head-Change                         Max.-Flux-Residual
  Residual-Control   Outer-Iter.   Inner-Iter.     Column Row Layer    Maximum-Head-Change  Column Row Layer    Maximum-Flux-Residual          L2-NORM 
          0                 1           2             4    7     1       0.1090288100E-01       4    7    1         0.5707654939E+00      0.1567015169E+01
          0                 2           2             4    7     1      -0.1060555093E-02       4    7    1        -0.5707668896E-01      0.1567189143E+00
          0                 3           1             4    7     1       0.7221985153E-04       4    7    1         0.3995368622E-02      0.1098044939E-01

    ------------------------------------------------
       NWT REQUIRED            3 OUTER ITERATIONS 
       AND A TOTAL OF          5 INNER ITERATIONS.
    ------------------------------------------------

 NO OUTPUT CONTROL FOR STRESS PERIOD   28   TIME STEP   25
 
 SOLVING FOR HEAD 
                                                   Max.-Head-Change                         Max.-Flux-Residual
  Residual-Control   Outer-Iter.   Inner-Iter.     Column Row Layer    Maximum-Head-Change  Column Row Layer    Maximum-Flux-Residual          L2-NORM 
          0                 1           2             4    7     1       0.1082178645E-01       4    7    1         0.5665023183E+00      0.1557916676E+01
          0                 2           2             4    7     1      -0.1052666768E-02       4    7    1        -0.5665036888E-01      0.1558036847E+00
          0                 3           1             4    7     1       0.7168268663E-04       4    7    1         0.3965526237E-02      0.1091365019E-01

    ------------------------------------------------
       NWT REQUIRED            3 OUTER ITERATIONS 
       AND A TOTAL OF          5 INNER ITERATIONS.
    ------------------------------------------------

 NO OUTPUT CONTROL FOR STRESS PERIOD   28   TIME STEP   26
 
 SOLVING FOR HEAD 
                                                   Max.-Head-Change                         Max.-Flux-Residual
  Residual-Control   Outer-Iter.   Inner-Iter.     Column Row Layer    Maximum-Head-Change  Column Row Layer    Maximum-Flux-Residual          L2-NORM 
          0                 1           2             4    7     1       0.1074152671E-01       4    7    1         0.5622829791E+00      0.1548933400E+01
          0                 2           2             4    7     1      -0.1044859647E-02       4    7    1        -0.5622843249E-01      0.1549013611E+00
          0                 3           1             4    7     1       0.7115105077E-04       4    7    1         0.3935990694E-02      0.1084848825E-01

    ------------------------------------------------
       NWT REQUIRED            3 OUTER ITERATIONS 
       AND A TOTAL OF          5 INNER ITERATIONS.
    ------------------------------------------------

 NO OUTPUT CONTROL FOR STRESS PERIOD   28   TIME STEP   27
 
 SOLVING FOR HEAD 
                                                   Max.-Head-Change                         Max.-Flux-Residual
  Residual-Control   Outer-Iter.   Inner-Iter.     Column Row Layer    Maximum-Head-Change  Column Row Layer    Maximum-Flux-Residual          L2-NORM 
          0                 1           2             4    7     1       0.1066222838E-01       4    7    1         0.5581142683E+00      0.1540072360E+01
          0                 2           2             4    7     1      -0.1037146046E-02       4    7    1        -0.5581155902E-01      0.1540123560E+00
          0                 3           1             4    7     1       0.7062578344E-04       4    7    1         0.3906809560E-02      0.1078475107E-01

    ------------------------------------------------
       NWT REQUIRED            3 OUTER ITERATIONS 
       AND A TOTAL OF          5 INNER ITERATIONS.
    ------------------------------------------------

 NO OUTPUT CONTROL FOR STRESS PERIOD   28   TIME STEP   28
 
 SOLVING FOR HEAD 
                                                   Max.-Head-Change                         Max.-Flux-Residual
  Residual-Control   Outer-Iter.   Inner-Iter.     Column Row Layer    Maximum-Head-Change  Column Row Layer    Maximum-Flux-Residual          L2-NORM 
          0                 1           2             4    7     1       0.1058386923E-01       4    7    1         0.5539954051E+00      0.1531311262E+01
          0                 2           2             4    7     1      -0.1029523802E-02       4    7    1        -0.5539967033E-01      0.1531341627E+00
          0                 3           1             4    7     1       0.7010673730E-04       4    7    1         0.3877977355E-02      0.1072212524E-01

    ------------------------------------------------
       NWT REQUIRED            3 OUTER ITERATIONS 
       AND A TOTAL OF          5 INNER ITERATIONS.
    ------------------------------------------------

 NO OUTPUT CONTROL FOR STRESS PERIOD   28   TIME STEP   29
 
 SOLVING FOR HEAD 
                                                   Max.-Head-Change                         Max.-Flux-Residual
  Residual-Control   Outer-Iter.   Inner-Iter.     Column Row Layer    Maximum-Head-Change  Column Row Layer    Maximum-Flux-Residual          L2-NORM 
          0                 1           2             4    7     1       0.1050629922E-01       4    7    1         0.5499178909E+00      0.1522649461E+01
          0                 2           2             4    7     1      -0.1021978321E-02       4    7    1        -0.5499191660E-01      0.1522665584E+00
          0                 3           1             4    7     1       0.6959291844E-04       4    7    1         0.3849434620E-02      0.1066057817E-01

    ------------------------------------------------
       NWT REQUIRED            3 OUTER ITERATIONS 
       AND A TOTAL OF          5 INNER ITERATIONS.
    ------------------------------------------------

 NO OUTPUT CONTROL FOR STRESS PERIOD   28   TIME STEP   30



 STREAM LISTING     PERIOD     28   STEP       30

 LAYER ROW COL. STREAM  RCH.  FLOW INTO     FLOW TO   FLOW OUT OF   OVRLND.     DIRECT     STREAM       STREAM     STREAM     STREAM   STREAMBED  STREAMBED
                SEG.NO.  NO.  STRM. RCH.    AQUIFER    STRM. RCH.    RUNOFF     PRECIP       ET          HEAD       DEPTH      WIDTH   CONDCTNC.   GRADIENT

   1    1    1     1     1    1.9000E+01  2.1427E-01   1.8786E+01  0.000E+00  0.000E+00  0.000E+00  1.09413E+03  1.082E+00  1.166E+01  5.249E-02  1.361E+00
   1    2    2     1     2    1.8786E+01  3.3054E-01   1.8455E+01  0.000E+00  0.000E+00  0.000E+00  1.08914E+03  1.077E+00  1.158E+01  8.107E-02  1.359E+00
   1    3    3     1     3    1.8455E+01  2.8064E-01   1.8175E+01  0.000E+00  0.000E+00  0.000E+00  1.08349E+03  1.072E+00  1.149E+01  6.892E-02  1.357E+00
   1    3    4     1     4    1.8175E+01  2.5740E-01   1.7917E+01  0.000E+00  0.000E+00  0.000E+00  1.07848E+03  1.068E+00  1.140E+01  6.328E-02  1.356E+00
   1    4    5     2     1    1.5917E+01  3.0542E-01   1.5612E+01  0.000E+00  0.000E+00  0.000E+00  1.07285E+03  9.157E-01  1.200E+01  7.800E-02  1.305E+00
   1    5    6     2     2    1.5612E+01  2.3438E-01   1.5377E+01  0.000E+00  0.000E+00  0.000E+00  1.06742E+03  9.063E-01  1.200E+01  6.000E-02  1.302E+00
   1    6    6     2     3    1.5377E+01  2.3388E-01   1.5143E+01  0.000E+00  0.000E+00  0.000E+00  1.06269E+03  8.980E-01  1.200E+01  6.000E-02  1.299E+00
   1    7    6     2     4    1.5143E+01  2.3338E-01   1.4910E+01  0.000E+00  0.000E+00  0.000E+00  1.05797E+03  8.897E-01  1.200E+01  6.000E-02  1.297E+00
   1    8    6     2     5    1.4910E+01  2.3289E-01   1.4677E+01  0.000E+00  0.000E+00  0.000E+00  1.05324E+03  8.814E-01  1.200E+01  6.000E-02  1.294E+00
   1    3    5     3     1    2.0000E+00  2.8252E-01   1.7175E+00  0.000E+00  0.000E+00  0.000E+00  1.07555E+03  1.909E+00  9.636E+00  7.227E-02  1.955E+00
   1    3    6     3     2    1.7175E+00  2.4905E-01   1.4684E+00  0.000E+00  0.000E+00  0.000E+00  1.07264E+03  1.727E+00  8.909E+00  6.682E-02  1.864E+00
   1    3    7     3     3    1.4684E+00  1.9718E-01   1.2712E+00  0.000E+00  0.000E+00  0.000E+00  1.06987E+03  1.555E+00  8.218E+00  5.547E-02  1.777E+00
   1    4    8     3     4    1.2712E+00  2.2567E-01   1.0456E+00  0.000E+00  0.000E+00  0.000E+00  1.06682E+03  1.364E+00  7.455E+00  6.709E-02  1.682E+00
   1    5    8     3     5    1.0456E+00  1.5790E-01   8.8768E-01  0.000E+00  0.000E+00  0.000E+00  1.06362E+03  1.164E+00  6.655E+00  4.991E-02  1.582E+00
   1    6    8     3     6    8.8768E-01  5.5980E-02   8.3170E-01  0.000E+00  0.000E+00  0.000E+00  1.06158E+03  1.036E+00  6.145E+00  1.844E-02  1.518E+00
   1    5   10     4     1    1.0000E+01  9.0919E-02   9.9091E+00  0.000E+00  0.000E+00  0.000E+00  1.07836E+03  6.368E-01  1.000E+01  2.500E-02  1.212E+00
   1    5    9     4     2    9.9091E+00  1.8158E-01   9.7275E+00  0.000E+00  0.000E+00  0.000E+00  1.07154E+03  6.315E-01  1.000E+01  5.000E-02  1.211E+00
   1    6    8     4     3    9.7275E+00  1.2689E-01   9.6006E+00  0.000E+00  0.000E+00  0.000E+00  1.06381E+03  6.256E-01  1.000E+01  3.500E-02  1.209E+00
   1    6    8     5     1    1.0432E+01  2.2686E-01   1.0205E+01  0.000E+00  0.000E+00  0.000E+00  1.05868E+03  6.790E-01  1.542E+01  6.166E-02  1.226E+00
   1    7    7     5     2    1.0205E+01  2.7894E-01   9.9265E+00  0.000E+00  0.000E+00  0.000E+00  1.05417E+03  6.732E-01  1.519E+01  7.594E-02  1.224E+00
   1    8    7     5     3    9.9265E+00  1.9221E-01   9.7343E+00  0.000E+00  0.000E+00  0.000E+00  1.04992E+03  6.676E-01  1.497E+01  5.241E-02  1.223E+00
   1    8    6     5     4    9.7343E+00  1.3577E-01   9.5985E+00  0.000E+00  0.000E+00  0.000E+00  1.04691E+03  6.637E-01  1.482E+01  3.706E-02  1.221E+00
   1    9    6     6     1    2.4276E+01  2.5176E-01   2.4024E+01  0.000E+00  0.000E+00  0.000E+00  1.04392E+03  1.196E+00  1.200E+01  6.000E-02  1.399E+00
   1   10    7     6     2    2.4024E+01  2.5131E-01   2.3773E+01  0.000E+00  0.000E+00  0.000E+00  1.03937E+03  1.188E+00  1.200E+01  6.000E-02  1.396E+00
   1   11    7     6     3    2.3773E+01  2.5086E-01   2.3522E+01  0.000E+00  0.000E+00  0.000E+00  1.03482E+03  1.181E+00  1.200E+01  6.000E-02  1.394E+00
   1   12    7     6     4    2.3522E+01  2.5041E-01   2.3271E+01  0.000E+00  0.000E+00  0.000E+00  1.03026E+03  1.173E+00  1.200E+01  6.000E-02  1.391E+00
   1   13    7     6     5    2.3271E+01  4.7214E-03   2.3267E+01  0.000E+00  0.000E+00  0.000E+00  1.02708E+03  1.170E+00  1.200E+01  2.400E-02  6.558E-02
   1   14    9     7     1    1.5000E+02  1.3416E+00   1.4866E+02  0.000E+00  0.000E+00  0.000E+00  1.03987E+03  2.288E+00  5.529E+01  5.593E-01  7.996E-01
   1   13    8     7     2    1.4866E+02  1.8792E+00   1.4678E+02  0.000E+00  0.000E+00  0.000E+00  1.03478E+03  2.279E+00  5.526E+01  6.148E-01  1.019E+00
   1   13    7     7     3    1.4678E+02  1.5677E+00   1.4521E+02  0.000E+00  0.000E+00  0.000E+00  1.02969E+03  2.270E+00  5.521E+01  5.584E-01  9.358E-01
   1   13    6     8     1    1.6848E+02  1.0167E+00   1.6746E+02  0.000E+00  0.000E+00  0.000E+00  1.02481E+03  2.939E+00  4.261E+01  4.343E-01  7.804E-01
   1   13    5     8     2    1.6746E+02  2.7106E-01   1.6719E+02  0.000E+00  0.000E+00  0.000E+00  1.01856E+03  2.935E+00  4.255E+01  4.336E-01  2.084E-01
   1   13    4     8     3    1.6719E+02 -2.1043E+00   1.6929E+02  0.000E+00  0.000E+00  0.000E+00  1.01232E+03  2.941E+00  4.264E+01  4.345E+00 -1.614E-01
   1   13    3     8     4    1.6929E+02 -3.5100E+00   1.7280E+02  0.000E+00  0.000E+00  0.000E+00  1.00608E+03  2.959E+00  4.291E+01  4.372E+00 -2.676E-01
   1   13    2     8     5    1.7280E+02 -2.5456E+00   1.7535E+02  0.000E+00  0.000E+00  0.000E+00  9.99854E+02  2.979E+00  4.319E+01  4.401E+00 -1.928E-01
   1   13    1     8     6    1.7535E+02 -1.9763E+00   1.7733E+02  0.000E+00  0.000E+00  0.000E+00  9.94868E+02  2.993E+00  4.340E+01  2.653E+00 -2.483E-01





UNSATURATED ZONE PACKAGE VOLUMETRIC BUDGET FOR  TIME STEP    30 STRESS PERIOD   28
  ------------------------------------------------------------------------------



     CUMULATIVE VOLUMES      L**3       RATES FOR THIS TIME STEP      L**3/T
     ------------------                 ------------------------

           IN:                                      IN:
           ---                                      ---
        INFILTRATION =  1109105189.4412          INFILTRATION =           4.4075

          OUT:                                     OUT:
          ----                                     ----
              UZF ET =  1004198188.3296                UZF ET =           0.7250
        UZF RECHARGE =      823503.5418          UZF RECHARGE =           0.0462

            IN - OUT =   104083497.5698              IN - OUT =           3.6363

          STORAGE:                                 STORAGE:
          --------                                 --------
      STORAGE CHANGE =   104084436.5753        STORAGE CHANGE =           3.6363

 PERCENT DISCREPANCY IS DIFFERENCE BETWEEN IN-OUT MINUS CHANGE IN STORAGE
 DIVIDED BY THE AVERAGE OF IN AND OUT TIMES 100

 PERCENT DISCREPANCY =          -0.00     PERCENT DISCREPANCY =           0.00






1
  VOLUMETRIC BUDGET FOR AGRICULTURAL FIELDS AT TIME STEP   30, STRESS PERIOD  28
  ------------------------------------------------------------------------------

     CUMULATIVE VOLUMES      L**3       RATES FOR THIS TIME STEP      L**3/T
     ------------------                 ------------------------

           IN:                                      IN:
           ---                                      ---
               AG WELLS  =   796055104.0000                 AG WELLS  =           0.0000
      DIVERSION SEGMENTS =           0.0000        DIVERSION SEGMENTS =           0.0000
           GW IRRIGATION =           0.0000             GW IRRIGATION =           0.0000
           SW IRRIGATION =           0.0000             SW IRRIGATION =           0.0000
        SYSTEM LOSSES GW =           0.0000          SYSTEM LOSSES GW =           0.0000
        SYSTEM LOSSES SW =           0.0000          SYSTEM LOSSES SW =           0.0000

                TOTAL IN =   796055104.0000                  TOTAL IN =           0.0000

          OUT:                                     OUT:
          ----                                     ----
               AG WELLS  =           0.0000                 AG WELLS  =           0.0000
      DIVERSION SEGMENTS =           0.0000        DIVERSION SEGMENTS =           0.0000
           GW IRRIGATION =   796055104.0000             GW IRRIGATION =           0.0000
           SW IRRIGATION =           0.0000             SW IRRIGATION =           0.0000
        SYSTEM LOSSES GW =           0.0000          SYSTEM LOSSES GW =           0.0000
        SYSTEM LOSSES SW =           0.0000          SYSTEM LOSSES SW =           0.0000

               TOTAL OUT =   796055104.0000                 TOTAL OUT =           0.0000

                IN - OUT =           0.0000                  IN - OUT =           0.0000

     PERCENT DISCREPANCY =           0.00         PERCENT DISCREPANCY =           0.00



1
  VOLUMETRIC BUDGET FOR ENTIRE MODEL AT END OF TIME STEP   30, STRESS PERIOD  28
  ------------------------------------------------------------------------------

     CUMULATIVE VOLUMES      L**3       RATES FOR THIS TIME STEP      L**3/T
     ------------------                 ------------------------

           IN:                                      IN:
           ---                                      ---
             STORAGE     =  1129204096.0000               STORAGE     =           4.4390
       CONSTANT HEAD     =           0.0000         CONSTANT HEAD     =           0.0000
     HEAD DEP BOUNDS     =    20300142.0000       HEAD DEP BOUNDS     =           0.2862
      STREAM LEAKAGE     =   877126208.0000        STREAM LEAKAGE     =          11.8096
        UZF RECHARGE     =      823503.4375          UZF RECHARGE     =       4.6200E-02
               GW ET     =           0.0000                 GW ET     =           0.0000
     SURFACE LEAKAGE     =           0.0000       SURFACE LEAKAGE     =           0.0000
           AG WELLS      =           0.0000             AG WELLS      =           0.0000

                TOTAL IN =  2027453952.0000                  TOTAL IN =          16.5809

          OUT:                                     OUT:
          ----                                     ----
             STORAGE     =   455767136.0000               STORAGE     =           6.1558
       CONSTANT HEAD     =           0.0000         CONSTANT HEAD     =           0.0000
     HEAD DEP BOUNDS     =    20869568.0000       HEAD DEP BOUNDS     =           0.2893
      STREAM LEAKAGE     =   737422144.0000        STREAM LEAKAGE     =          10.1363
        UZF RECHARGE     =           0.0000          UZF RECHARGE     =           0.0000
               GW ET     =    17343536.0000                 GW ET     =           0.0000
     SURFACE LEAKAGE     =           0.0000       SURFACE LEAKAGE     =           0.0000
           AG WELLS      =   796055104.0000             AG WELLS      =           0.0000

               TOTAL OUT =  2027457536.0000                 TOTAL OUT =          16.5814

                IN - OUT =       -3584.0000                  IN - OUT =      -4.5204E-04

     PERCENT DISCREPANCY =          -0.00         PERCENT DISCREPANCY =          -0.00






         TIME SUMMARY AT END OF TIME STEP   30 IN STRESS PERIOD   28
                    SECONDS     MINUTES      HOURS       DAYS        YEARS
                    -----------------------------------------------------------
   TIME STEP LENGTH  87667.      1461.1      24.352      1.0147     2.77799E-03
 STRESS PERIOD TIME 2.63000E+06  43833.      730.56      30.440     8.33397E-02
         TOTAL TIME 7.10967E+07 1.18494E+06  19749.      822.88      2.2529    
1
1
                            STRESS PERIOD NO.   29, LENGTH =   2630000.    
                            -----------------------------------------------

                              NUMBER OF TIME STEPS =    30

                               MULTIPLIER FOR DELT =     1.000

                            INITIAL TIME STEP SIZE =   87666.66    

 REUSING NON-PARAMETER GHB CELLS FROM LAST STRESS PERIOD

      2 GHB CELLS

 REUSING STREAM SEGMENT DATA FROM LAST STRESS PERIOD



            AREAL INFILTRATION RATE
 READING ON UNIT   19 WITH FORMAT: (10F4.0)            

            1           2           3           4           5           6           7           8           9          10
 ........................................................................................................................
   1   1.2000E-09   0.000       0.000       0.000       0.000       0.000       0.000       0.000       0.000       0.000    
   2   2.1000E-09  2.0000E-09  8.0000E-10  8.5000E-09   0.000       0.000       0.000       0.000       0.000       0.000    
   3   5.0000E-10  1.1000E-09  8.8000E-09  5.5000E-09   0.000       0.000       0.000       0.000       0.000       0.000    
   4   8.5000E-09  1.1000E-09  1.1000E-09  1.1000E-09  2.0000E-09   0.000       0.000       0.000       0.000       0.000    
   5   8.5000E-09  1.1000E-09  1.1000E-09  1.1000E-09  1.1000E-09   0.000       0.000       0.000       0.000       0.000    
   6   8.5000E-09  5.2000E-09  2.1000E-09  1.1000E-09  1.5000E-09   0.000       0.000       0.000       0.000       0.000    
   7   8.5000E-09  5.2000E-09  2.1000E-09  1.2000E-09  2.0000E-09   0.000       0.000       0.000       0.000       0.000    
   8   5.0000E-10  5.2000E-09  2.1000E-09  1.2000E-09  5.0000E-09   0.000       0.000       0.000       0.000       0.000    
   9   5.0000E-10  5.2000E-09  2.1000E-09  1.2000E-09  5.0000E-09   0.000       0.000       0.000       0.000       0.000    
  10   5.0000E-10  5.2000E-09  2.1000E-09  1.2000E-09  5.8000E-09   0.000       0.000       0.000       0.000       0.000    
  11   1.0000E-10  1.1000E-09  1.1000E-09  1.2000E-09  5.0000E-09   0.000       0.000       0.000       0.000       0.000    
  12   1.1000E-09  1.1000E-09  1.1000E-09  1.1000E-09  2.0000E-09   0.000       0.000       0.000       0.000       0.000    
  13   1.1000E-09  2.2000E-09  2.2000E-09  2.1000E-09  1.0000E-09   0.000       0.000       0.000       0.000       0.000    
  14   2.0000E-10  5.5000E-09  5.5000E-09  5.2000E-09  1.0000E-09   0.000       0.000       0.000       0.000       0.000    
  15    0.000      8.8000E-09  8.8000E-09   0.000       0.000       0.000       0.000       0.000       0.000       0.000    

                  ET RATE =  2.500000E-08

 USING ET EXTINCTION DEPTH FROM PREVIOUS STRESS PERIOD. CURRENT PERIOD IS:      29

 USING EXTINCTION WATER CONTENT FROM PREVIOUS STRESS PERIOD. CURRENT PERIOD IS:      29

 USING AIR ENTRY PRESSURE FROM PREVIOUS STRESS PERIOD. CURRENT PERIOD IS:      29

 USING ROOT PRESSURE HEAD FROM PREVIOUS STRESS PERIOD. CURRENT PERIOD IS:      29

 USING ROOT ACTIVITY FROM PREVIOUS STRESS PERIOD. CURRENT PERIOD IS:      29

 PROCESSING AG STRESS PERIOD DATA

 READING AG STRESS PERIOD DATA

 READING IRRIGATION WELL

 END PROCESSING AG STRESS PERIOD DATA OPTIONS
 
 SOLVING FOR HEAD 
                                                   Max.-Head-Change                         Max.-Flux-Residual
  Residual-Control   Outer-Iter.   Inner-Iter.     Column Row Layer    Maximum-Head-Change  Column Row Layer    Maximum-Flux-Residual          L2-NORM 
          0                 1           2             4    7     1       0.1042977404E-01       4    7    1         0.5458959172E+00      0.1514089170E+01
          0                 2           2             4    7     1      -0.1014534496E-02       4    7    1        -0.5458971699E-01      0.1514101490E+00
          0                 3           1             4    7     1       0.6908600062E-04       4    7    1         0.3821280635E-02      0.1059941726E-01

    ------------------------------------------------
       NWT REQUIRED            3 OUTER ITERATIONS 
       AND A TOTAL OF          5 INNER ITERATIONS.
    ------------------------------------------------

 NO OUTPUT CONTROL FOR STRESS PERIOD   29   TIME STEP    1
 
 SOLVING FOR HEAD 
                                                   Max.-Head-Change                         Max.-Flux-Residual
  Residual-Control   Outer-Iter.   Inner-Iter.     Column Row Layer    Maximum-Head-Change  Column Row Layer    Maximum-Flux-Residual          L2-NORM 
          0                 1           2             4    7     1       0.1029141948E-01       4    7    1         0.5386245121E+00      0.1501679547E+01
          0                 2           2             4    7     1      -0.1086827114E-02       4    7    1        -0.5858571187E-01      0.1539237037E+00
          0                 3           1             3    7     1       0.5786125109E-04       5    7    1         0.3195961124E-02      0.9476413603E-02

    ------------------------------------------------
       NWT REQUIRED            3 OUTER ITERATIONS 
       AND A TOTAL OF          5 INNER ITERATIONS.
    ------------------------------------------------

 NO OUTPUT CONTROL FOR STRESS PERIOD   29   TIME STEP    2
 
 SOLVING FOR HEAD 
                                                   Max.-Head-Change                         Max.-Flux-Residual
  Residual-Control   Outer-Iter.   Inner-Iter.     Column Row Layer    Maximum-Head-Change  Column Row Layer    Maximum-Flux-Residual          L2-NORM 
          0                 1           2             3    7     1       0.8635047299E-02       5    7    1         0.4541704934E+00      0.1240982447E+01
          0                 2           2             3    7     1      -0.8399556613E-03       5    7    1        -0.4541727397E-01      0.1245791630E+00
          0                 3           1             3    7     1       0.5719768858E-04       5    7    1         0.3179208453E-02      0.8324221584E-02

    ------------------------------------------------
       NWT REQUIRED            3 OUTER ITERATIONS 
       AND A TOTAL OF          5 INNER ITERATIONS.
    ------------------------------------------------

 NO OUTPUT CONTROL FOR STRESS PERIOD   29   TIME STEP    3
 
 SOLVING FOR HEAD 
                                                   Max.-Head-Change                         Max.-Flux-Residual
  Residual-Control   Outer-Iter.   Inner-Iter.     Column Row Layer    Maximum-Head-Change  Column Row Layer    Maximum-Flux-Residual          L2-NORM 
          0                 1           2             3    7     1       0.8497186917E-02       5    7    1         0.4429953985E+00      0.1182278028E+01
          0                 2           2             3    7     1      -0.8265452259E-03       5    7    1        -0.4429965726E-01      0.1182268975E+00
          0                 3           1             3    7     1       0.5628474049E-04       5    7    1         0.3100976231E-02      0.8276304438E-02

    ------------------------------------------------
       NWT REQUIRED            3 OUTER ITERATIONS 
       AND A TOTAL OF          5 INNER ITERATIONS.
    ------------------------------------------------

 NO OUTPUT CONTROL FOR STRESS PERIOD   29   TIME STEP    4
 
 SOLVING FOR HEAD 
                                                   Max.-Head-Change                         Max.-Flux-Residual
  Residual-Control   Outer-Iter.   Inner-Iter.     Column Row Layer    Maximum-Head-Change  Column Row Layer    Maximum-Flux-Residual          L2-NORM 
          0                 1           2             3    7     1       0.8362830975E-02       5    7    1         0.4225549633E+00      0.1149683513E+01
          0                 2           2             3    7     1      -0.8134760564E-03       5    7    1        -0.4225562413E-01      0.1149672586E+00
          0                 3           1             3    7     1       0.5539476355E-04       5    7    1         0.2957893754E-02      0.8047958845E-02

    ------------------------------------------------
       NWT REQUIRED            3 OUTER ITERATIONS 
       AND A TOTAL OF          5 INNER ITERATIONS.
    ------------------------------------------------

 NO OUTPUT CONTROL FOR STRESS PERIOD   29   TIME STEP    5
 
 SOLVING FOR HEAD 
                                                   Max.-Head-Change                         Max.-Flux-Residual
  Residual-Control   Outer-Iter.   Inner-Iter.     Column Row Layer    Maximum-Head-Change  Column Row Layer    Maximum-Flux-Residual          L2-NORM 
          0                 1           2             3    7     1       0.8229835490E-02       5    8    1         0.3698298948E+00      0.1065055161E+01
          0                 2           2             3    7     1      -0.8005392057E-03       5    8    1        -0.3698309996E-01      0.1065042283E+00
          0                 3           1             3    7     1       0.5451380812E-04       5    8    1         0.2588817074E-02      0.7455370223E-02

    ------------------------------------------------
       NWT REQUIRED            3 OUTER ITERATIONS 
       AND A TOTAL OF          5 INNER ITERATIONS.
    ------------------------------------------------

 NO OUTPUT CONTROL FOR STRESS PERIOD   29   TIME STEP    6
 
 SOLVING FOR HEAD 
                                                   Max.-Head-Change                         Max.-Flux-Residual
  Residual-Control   Outer-Iter.   Inner-Iter.     Column Row Layer    Maximum-Head-Change  Column Row Layer    Maximum-Flux-Residual          L2-NORM 
          0                 1           2             3    7     1       0.8098930627E-02       5    8    1         0.3460000958E+00      0.1034423785E+01
          0                 2           2             3    7     1      -0.7878058440E-03       5    8    1        -0.3614120549E-01      0.1039666349E+00
          0                 3           1             3    7     1       0.5364657122E-04       6    7    1         0.1873001561E-02      0.6878927177E-02

    ------------------------------------------------
       NWT REQUIRED            3 OUTER ITERATIONS 
       AND A TOTAL OF          5 INNER ITERATIONS.
    ------------------------------------------------

 NO OUTPUT CONTROL FOR STRESS PERIOD   29   TIME STEP    7
 
 SOLVING FOR HEAD 
                                                   Max.-Head-Change                         Max.-Flux-Residual
  Residual-Control   Outer-Iter.   Inner-Iter.     Column Row Layer    Maximum-Head-Change  Column Row Layer    Maximum-Flux-Residual          L2-NORM 
          0                 1           2             3    7     1       0.7969923668E-02       5    8    1         0.3336886052E+00      0.1015871606E+01
          0                 2           2             3    7     1      -0.7752570814E-03       5    8    1        -0.3626968599E-01      0.1025828848E+00
          0                 3           1             3    7     1       0.5279188641E-04       6    7    1         0.1811527272E-02      0.6787797034E-02

    ------------------------------------------------
       NWT REQUIRED            3 OUTER ITERATIONS 
       AND A TOTAL OF          5 INNER ITERATIONS.
    ------------------------------------------------

 NO OUTPUT CONTROL FOR STRESS PERIOD   29   TIME STEP    8
 
 SOLVING FOR HEAD 
                                                   Max.-Head-Change                         Max.-Flux-Residual
  Residual-Control   Outer-Iter.   Inner-Iter.     Column Row Layer    Maximum-Head-Change  Column Row Layer    Maximum-Flux-Residual          L2-NORM 
          0                 1           2             3    7     1       0.7842578876E-02       6    7    1         0.2504050082E+00      0.9609326803E+00
          0                 2           2             3    7     1      -0.7628696243E-03       6    7    1        -0.2504058751E-01      0.9609894580E-01
          0                 3           1             3    7     1       0.5194864995E-04       6    7    1         0.1752841059E-02      0.6728592387E-02

    ------------------------------------------------
       NWT REQUIRED            3 OUTER ITERATIONS 
       AND A TOTAL OF          5 INNER ITERATIONS.
    ------------------------------------------------

 NO OUTPUT CONTROL FOR STRESS PERIOD   29   TIME STEP    9
 
 SOLVING FOR HEAD 
                                                   Max.-Head-Change                         Max.-Flux-Residual
  Residual-Control   Outer-Iter.   Inner-Iter.     Column Row Layer    Maximum-Head-Change  Column Row Layer    Maximum-Flux-Residual          L2-NORM 
          0                 1           2             3    7     1       0.7717402424E-02       6    7    1         0.2422361857E+00      0.9331621080E+00
          0                 2           2             3    7     1      -0.7506933478E-03       6    7    1        -0.2422370020E-01      0.9332126720E-01
          0                 3           1             3    7     1       0.5111948905E-04       6    7    1         0.1695658977E-02      0.6533854336E-02

    ------------------------------------------------
       NWT REQUIRED            3 OUTER ITERATIONS 
       AND A TOTAL OF          5 INNER ITERATIONS.
    ------------------------------------------------

 NO OUTPUT CONTROL FOR STRESS PERIOD   29   TIME STEP   10
 
 SOLVING FOR HEAD 
                                                   Max.-Head-Change                         Max.-Flux-Residual
  Residual-Control   Outer-Iter.   Inner-Iter.     Column Row Layer    Maximum-Head-Change  Column Row Layer    Maximum-Flux-Residual          L2-NORM 
          0                 1           2             3    7     1       0.7594151557E-02       6    7    1         0.2343462943E+00      0.9180892622E+00
          0                 2           2             3    7     1      -0.7387043785E-03       6    7    1        -0.2343470614E-01      0.9181326822E-01
          0                 3           1             3    7     1       0.5030308247E-04       6    7    1         0.1640429396E-02      0.6428270155E-02

    ------------------------------------------------
       NWT REQUIRED            3 OUTER ITERATIONS 
       AND A TOTAL OF          5 INNER ITERATIONS.
    ------------------------------------------------

 NO OUTPUT CONTROL FOR STRESS PERIOD   29   TIME STEP   11
 
 SOLVING FOR HEAD 
                                                   Max.-Head-Change                         Max.-Flux-Residual
  Residual-Control   Outer-Iter.   Inner-Iter.     Column Row Layer    Maximum-Head-Change  Column Row Layer    Maximum-Flux-Residual          L2-NORM 
          0                 1           2             3    7     1       0.7472830558E-02       4    9    1         0.2272636947E+00      0.9023779162E+00
          0                 2           2             3    7     1      -0.7269031346E-03       4    9    1        -0.2272639917E-01      0.9024158599E-01
          0                 3           1             3    7     1       0.4949945920E-04       4    9    1         0.1590848337E-02      0.6317905581E-02

    ------------------------------------------------
       NWT REQUIRED            3 OUTER ITERATIONS 
       AND A TOTAL OF          5 INNER ITERATIONS.
    ------------------------------------------------

 NO OUTPUT CONTROL FOR STRESS PERIOD   29   TIME STEP   12
 
 SOLVING FOR HEAD 
                                                   Max.-Head-Change                         Max.-Flux-Residual
  Residual-Control   Outer-Iter.   Inner-Iter.     Column Row Layer    Maximum-Head-Change  Column Row Layer    Maximum-Flux-Residual          L2-NORM 
          0                 1           2             3    7     1       0.7353681910E-02       4    9    1         0.2217535855E+00      0.8867410227E+00
          0                 2           2             3    7     1      -0.7153132027E-03       4    9    1        -0.2217538700E-01      0.8867363101E-01
          0                 3           1             3    7     1       0.4871022567E-04       4    9    1         0.1552277493E-02      0.6207267074E-02

    ------------------------------------------------
       NWT REQUIRED            3 OUTER ITERATIONS 
       AND A TOTAL OF          5 INNER ITERATIONS.
    ------------------------------------------------

 NO OUTPUT CONTROL FOR STRESS PERIOD   29   TIME STEP   13
 
 SOLVING FOR HEAD 
                                                   Max.-Head-Change                         Max.-Flux-Residual
  Residual-Control   Outer-Iter.   Inner-Iter.     Column Row Layer    Maximum-Head-Change  Column Row Layer    Maximum-Flux-Residual          L2-NORM 
          0                 1           2             3    7     1       0.7236208683E-02       4    9    1         0.2164013043E+00      0.8716357947E+00
          0                 2           2             3    7     1      -0.7038862444E-03       4    9    1        -0.2164015770E-01      0.8716165219E-01
          0                 3           1             3    7     1       0.4793209070E-04       4    9    1         0.1514811437E-02      0.6102218065E-02

    ------------------------------------------------
       NWT REQUIRED            3 OUTER ITERATIONS 
       AND A TOTAL OF          5 INNER ITERATIONS.
    ------------------------------------------------

 NO OUTPUT CONTROL FOR STRESS PERIOD   29   TIME STEP   14
 
 SOLVING FOR HEAD 
                                                   Max.-Head-Change                         Max.-Flux-Residual
  Residual-Control   Outer-Iter.   Inner-Iter.     Column Row Layer    Maximum-Head-Change  Column Row Layer    Maximum-Flux-Residual          L2-NORM 
          0                 1           2             3    7     1       0.7120898165E-02       4    9    1         0.2112045175E+00      0.8567957072E+00
          0                 2           2             3    7     1      -0.6926696590E-03       4    9    1        -0.2112047787E-01      0.8567799880E-01
          0                 3           1             3    7     1       0.4716828049E-04       4    9    1         0.1478433840E-02      0.5998157502E-02

    ------------------------------------------------
       NWT REQUIRED            3 OUTER ITERATIONS 
       AND A TOTAL OF          5 INNER ITERATIONS.
    ------------------------------------------------

 NO OUTPUT CONTROL FOR STRESS PERIOD   29   TIME STEP   15
 
 SOLVING FOR HEAD 
                                                   Max.-Head-Change                         Max.-Flux-Residual
  Residual-Control   Outer-Iter.   Inner-Iter.     Column Row Layer    Maximum-Head-Change  Column Row Layer    Maximum-Flux-Residual          L2-NORM 
          0                 1           2             3    7     1       0.7007490800E-02       4    9    1         0.2061740884E+00      0.8425405946E+00
          0                 2           2             3    7     1      -0.6816381998E-03       4    9    1        -0.2061743386E-01      0.8425279805E-01
          0                 3           1             3    7     1       0.4641707692E-04       4    9    1         0.1443220751E-02      0.5898255303E-02

    ------------------------------------------------
       NWT REQUIRED            3 OUTER ITERATIONS 
       AND A TOTAL OF          5 INNER ITERATIONS.
    ------------------------------------------------

 NO OUTPUT CONTROL FOR STRESS PERIOD   29   TIME STEP   16
 
 SOLVING FOR HEAD 
                                                   Max.-Head-Change                         Max.-Flux-Residual
  Residual-Control   Outer-Iter.   Inner-Iter.     Column Row Layer    Maximum-Head-Change  Column Row Layer    Maximum-Flux-Residual          L2-NORM 
          0                 1           2             3    7     1       0.6896220045E-02       4    9    1         0.2012878657E+00      0.8288745889E+00
          0                 2           2             3    7     1      -0.6708145760E-03       4    9    1        -0.2012881054E-01      0.8288642715E-01
          0                 3           1             3    7     1       0.4568002748E-04       4    9    1         0.1409017130E-02      0.5802451905E-02

    ------------------------------------------------
       NWT REQUIRED            3 OUTER ITERATIONS 
       AND A TOTAL OF          5 INNER ITERATIONS.
    ------------------------------------------------

 NO OUTPUT CONTROL FOR STRESS PERIOD   29   TIME STEP   17
 
 SOLVING FOR HEAD 
                                                   Max.-Head-Change                         Max.-Flux-Residual
  Residual-Control   Outer-Iter.   Inner-Iter.     Column Row Layer    Maximum-Head-Change  Column Row Layer    Maximum-Flux-Residual          L2-NORM 
          0                 1           2             3    7     1       0.6786576653E-02       4    9    1         0.1965632409E+00      0.8158158171E+00
          0                 2           2             3    7     1      -0.6601492509E-03       4    9    1        -0.1965634706E-01      0.8158073454E-01
          0                 3           1             3    7     1       0.4495375685E-04       4    9    1         0.1375944657E-02      0.5710162825E-02

    ------------------------------------------------
       NWT REQUIRED            3 OUTER ITERATIONS 
       AND A TOTAL OF          5 INNER ITERATIONS.
    ------------------------------------------------

 NO OUTPUT CONTROL FOR STRESS PERIOD   29   TIME STEP   18
 
 SOLVING FOR HEAD 
                                                   Max.-Head-Change                         Max.-Flux-Residual
  Residual-Control   Outer-Iter.   Inner-Iter.     Column Row Layer    Maximum-Head-Change  Column Row Layer    Maximum-Flux-Residual          L2-NORM 
          0                 1           2             3    7     1       0.6679039594E-02       4    9    1         0.1919842255E+00      0.8033350062E+00
          0                 2           2             3    7     1      -0.6496888148E-03       4    9    1        -0.1919844455E-01      0.8033272185E-01
          0                 3           1             3    7     1       0.4424143870E-04       4    9    1         0.1343891491E-02      0.5623512170E-02

    ------------------------------------------------
       NWT REQUIRED            3 OUTER ITERATIONS 
       AND A TOTAL OF          5 INNER ITERATIONS.
    ------------------------------------------------

 NO OUTPUT CONTROL FOR STRESS PERIOD   29   TIME STEP   19
 
 SOLVING FOR HEAD 
                                                   Max.-Head-Change                         Max.-Flux-Residual
  Residual-Control   Outer-Iter.   Inner-Iter.     Column Row Layer    Maximum-Head-Change  Column Row Layer    Maximum-Flux-Residual          L2-NORM 
          0                 1           2             3    7     1       0.6573583635E-02       4    9    1         0.1875544139E+00      0.7914275685E+00
          0                 2           2             3    7     1      -0.6394308139E-03       4    9    1        -0.1875546248E-01      0.7914205388E-01
          0                 3           1             3    7     1       0.4354290535E-04       4    9    1         0.1312882739E-02      0.5540158204E-02

    ------------------------------------------------
       NWT REQUIRED            3 OUTER ITERATIONS 
       AND A TOTAL OF          5 INNER ITERATIONS.
    ------------------------------------------------

 NO OUTPUT CONTROL FOR STRESS PERIOD   29   TIME STEP   20
 
 SOLVING FOR HEAD 
                                                   Max.-Head-Change                         Max.-Flux-Residual
  Residual-Control   Outer-Iter.   Inner-Iter.     Column Row Layer    Maximum-Head-Change  Column Row Layer    Maximum-Flux-Residual          L2-NORM 
          0                 1           2             3    7     1       0.6469940962E-02       4    9    1         0.1832641781E+00      0.7800594742E+00
          0                 2           2             3    7     1      -0.6293491971E-03       4    9    1        -0.1832643802E-01      0.7800532684E-01
          0                 3           1             3    7     1       0.4285638340E-04       4    9    1         0.1282851037E-02      0.5460518935E-02

    ------------------------------------------------
       NWT REQUIRED            3 OUTER ITERATIONS 
       AND A TOTAL OF          5 INNER ITERATIONS.
    ------------------------------------------------

 NO OUTPUT CONTROL FOR STRESS PERIOD   29   TIME STEP   21
 
 SOLVING FOR HEAD 
                                                   Max.-Head-Change                         Max.-Flux-Residual
  Residual-Control   Outer-Iter.   Inner-Iter.     Column Row Layer    Maximum-Head-Change  Column Row Layer    Maximum-Flux-Residual          L2-NORM 
          0                 1           2             3    7     1       0.6368092598E-02       4    9    1         0.1791169859E+00      0.7692114781E+00
          0                 2           2             3    7     1      -0.6194421179E-03       4    9    1        -0.1791171799E-01      0.7692056253E-01
          0                 3           1             3    7     1       0.4218174707E-04       4    9    1         0.1253820605E-02      0.5384523447E-02

    ------------------------------------------------
       NWT REQUIRED            3 OUTER ITERATIONS 
       AND A TOTAL OF          5 INNER ITERATIONS.
    ------------------------------------------------

 NO OUTPUT CONTROL FOR STRESS PERIOD   29   TIME STEP   22
 
 SOLVING FOR HEAD 
                                                   Max.-Head-Change                         Max.-Flux-Residual
  Residual-Control   Outer-Iter.   Inner-Iter.     Column Row Layer    Maximum-Head-Change  Column Row Layer    Maximum-Flux-Residual          L2-NORM 
          0                 1           2             3    7     1       0.6268258414E-02       4    9    1         0.1751157098E+00      0.7588568630E+00
          0                 2           2             3    7     1      -0.6097309643E-03       4    9    1        -0.1751158958E-01      0.7588512700E-01
          0                 3           1             3    7     1       0.4152045213E-04       4    9    1         0.1225811627E-02      0.5312016488E-02

    ------------------------------------------------
       NWT REQUIRED            3 OUTER ITERATIONS 
       AND A TOTAL OF          5 INNER ITERATIONS.
    ------------------------------------------------

 NO OUTPUT CONTROL FOR STRESS PERIOD   29   TIME STEP   23
 
 SOLVING FOR HEAD 
                                                   Max.-Head-Change                         Max.-Flux-Residual
  Residual-Control   Outer-Iter.   Inner-Iter.     Column Row Layer    Maximum-Head-Change  Column Row Layer    Maximum-Flux-Residual          L2-NORM 
          0                 1           2             3    7     1       0.6170409609E-02       4    9    1         0.1712437066E+00      0.7489657841E+00
          0                 2           2             3    7     1      -0.6002129348E-03       4    9    1        -0.1712438851E-01      0.7489602101E-01
          0                 3           1             3    7     1       0.4087230888E-04       4    9    1         0.1198707545E-02      0.5242727431E-02

    ------------------------------------------------
       NWT REQUIRED            3 OUTER ITERATIONS 
       AND A TOTAL OF          5 INNER ITERATIONS.
    ------------------------------------------------

 NO OUTPUT CONTROL FOR STRESS PERIOD   29   TIME STEP   24
 
 SOLVING FOR HEAD 
                                                   Max.-Head-Change                         Max.-Flux-Residual
  Residual-Control   Outer-Iter.   Inner-Iter.     Column Row Layer    Maximum-Head-Change  Column Row Layer    Maximum-Flux-Residual          L2-NORM 
          0                 1           2             3    7     1       0.6074271088E-02       4    9    1         0.1675037220E+00      0.7395557841E+00
          0                 2           2             3    7     1      -0.5908612692E-03       4    9    1        -0.1675038935E-01      0.7395080956E-01
          0                 3           1             3    7     1       0.4023549401E-04       4    9    1         0.1172527598E-02      0.5176277495E-02

    ------------------------------------------------
       NWT REQUIRED            3 OUTER ITERATIONS 
       AND A TOTAL OF          5 INNER ITERATIONS.
    ------------------------------------------------

 NO OUTPUT CONTROL FOR STRESS PERIOD   29   TIME STEP   25
 
 SOLVING FOR HEAD 
                                                   Max.-Head-Change                         Max.-Flux-Residual
  Residual-Control   Outer-Iter.   Inner-Iter.     Column Row Layer    Maximum-Head-Change  Column Row Layer    Maximum-Flux-Residual          L2-NORM 
          0                 1           2             3    7     1       0.5979819320E-02       4    9    1         0.1638921494E+00      0.7305527336E+00
          0                 2           2             3    7     1      -0.5790607738E-03       4    9    1        -0.1638923139E-01      0.7302762338E-01
          0                 3           1             3    7     1       0.3943191523E-04       4    9    1         0.1147246529E-02      0.5111719991E-02

    ------------------------------------------------
       NWT REQUIRED            3 OUTER ITERATIONS 
       AND A TOTAL OF          5 INNER ITERATIONS.
    ------------------------------------------------

 NO OUTPUT CONTROL FOR STRESS PERIOD   29   TIME STEP   26
 
 SOLVING FOR HEAD 
                                                   Max.-Head-Change                         Max.-Flux-Residual
  Residual-Control   Outer-Iter.   Inner-Iter.     Column Row Layer    Maximum-Head-Change  Column Row Layer    Maximum-Flux-Residual          L2-NORM 
          0                 1           2             3    7     1       0.5896867790E-02       4    9    1         0.1604048937E+00      0.7219064598E+00
          0                 2           2             3    7     1      -0.5736055076E-03       4    9    1        -0.1604050519E-01      0.7218540865E-01
          0                 3           1             3    7     1       0.3906043109E-04       4    9    1         0.1122835695E-02      0.5052721197E-02

    ------------------------------------------------
       NWT REQUIRED            3 OUTER ITERATIONS 
       AND A TOTAL OF          5 INNER ITERATIONS.
    ------------------------------------------------

 NO OUTPUT CONTROL FOR STRESS PERIOD   29   TIME STEP   27
 
 SOLVING FOR HEAD 
                                                   Max.-Head-Change                         Max.-Flux-Residual
  Residual-Control   Outer-Iter.   Inner-Iter.     Column Row Layer    Maximum-Head-Change  Column Row Layer    Maximum-Flux-Residual          L2-NORM 
          0                 1           2             3    7     1       0.5812762266E-02       4    9    1         0.1570383326E+00      0.7136494115E+00
          0                 2           2             3    7     1      -0.5654243003E-03       4    9    1        -0.1570384846E-01      0.7136030280E-01
          0                 3           1             3    7     1       0.3850332067E-04       4    9    1         0.1099269728E-02      0.4994964529E-02

    ------------------------------------------------
       NWT REQUIRED            3 OUTER ITERATIONS 
       AND A TOTAL OF          5 INNER ITERATIONS.
    ------------------------------------------------

 NO OUTPUT CONTROL FOR STRESS PERIOD   29   TIME STEP   28
 
 SOLVING FOR HEAD 
                                                   Max.-Head-Change                         Max.-Flux-Residual
  Residual-Control   Outer-Iter.   Inner-Iter.     Column Row Layer    Maximum-Head-Change  Column Row Layer    Maximum-Flux-Residual          L2-NORM 
          0                 1           2             3    7     1       0.5730170258E-02       9    5    1        -0.1541735796E+00      0.7057419038E+00
          0                 2           2             3    7     1      -0.5573903174E-03       9    5    1         0.1541734568E-01      0.7057009029E-01
          0                 3           1             3    7     1       0.3795623573E-04       9    5    1        -0.1079214769E-02      0.4939668961E-02

    ------------------------------------------------
       NWT REQUIRED            3 OUTER ITERATIONS 
       AND A TOTAL OF          5 INNER ITERATIONS.
    ------------------------------------------------

 NO OUTPUT CONTROL FOR STRESS PERIOD   29   TIME STEP   29
 
 SOLVING FOR HEAD 
                                                   Max.-Head-Change                         Max.-Flux-Residual
  Residual-Control   Outer-Iter.   Inner-Iter.     Column Row Layer    Maximum-Head-Change  Column Row Layer    Maximum-Flux-Residual          L2-NORM 
          0                 1           2             3    7     1       0.5648825779E-02       9    5    1        -0.1537170927E+00      0.6981633186E+00
          0                 2           2             3    7     1      -0.5494776863E-03       9    5    1         0.1537169696E-01      0.6981263071E-01
          0                 3           1             3    7     1       0.3741741459E-04       9    5    1        -0.1076019370E-02      0.4886626233E-02

    ------------------------------------------------
       NWT REQUIRED            3 OUTER ITERATIONS 
       AND A TOTAL OF          5 INNER ITERATIONS.
    ------------------------------------------------

 NO OUTPUT CONTROL FOR STRESS PERIOD   29   TIME STEP   30



 STREAM LISTING     PERIOD     29   STEP       30

 LAYER ROW COL. STREAM  RCH.  FLOW INTO     FLOW TO   FLOW OUT OF   OVRLND.     DIRECT     STREAM       STREAM     STREAM     STREAM   STREAMBED  STREAMBED
                SEG.NO.  NO.  STRM. RCH.    AQUIFER    STRM. RCH.    RUNOFF     PRECIP       ET          HEAD       DEPTH      WIDTH   CONDCTNC.   GRADIENT

   1    1    1     1     1    1.9000E+01  2.1427E-01   1.8786E+01  0.000E+00  0.000E+00  0.000E+00  1.09413E+03  1.082E+00  1.166E+01  5.249E-02  1.361E+00
   1    2    2     1     2    1.8786E+01  3.3054E-01   1.8455E+01  0.000E+00  0.000E+00  0.000E+00  1.08914E+03  1.077E+00  1.158E+01  8.107E-02  1.359E+00
   1    3    3     1     3    1.8455E+01  2.8064E-01   1.8175E+01  0.000E+00  0.000E+00  0.000E+00  1.08349E+03  1.072E+00  1.149E+01  6.892E-02  1.357E+00
   1    3    4     1     4    1.8175E+01  2.5740E-01   1.7917E+01  0.000E+00  0.000E+00  0.000E+00  1.07848E+03  1.068E+00  1.140E+01  6.328E-02  1.356E+00
   1    4    5     2     1    1.5917E+01  3.0542E-01   1.5612E+01  0.000E+00  0.000E+00  0.000E+00  1.07285E+03  9.157E-01  1.200E+01  7.800E-02  1.305E+00
   1    5    6     2     2    1.5612E+01  2.3438E-01   1.5377E+01  0.000E+00  0.000E+00  0.000E+00  1.06742E+03  9.063E-01  1.200E+01  6.000E-02  1.302E+00
   1    6    6     2     3    1.5377E+01  2.3388E-01   1.5143E+01  0.000E+00  0.000E+00  0.000E+00  1.06269E+03  8.980E-01  1.200E+01  6.000E-02  1.299E+00
   1    7    6     2     4    1.5143E+01  2.3338E-01   1.4910E+01  0.000E+00  0.000E+00  0.000E+00  1.05797E+03  8.897E-01  1.200E+01  6.000E-02  1.297E+00
   1    8    6     2     5    1.4910E+01  2.3289E-01   1.4677E+01  0.000E+00  0.000E+00  0.000E+00  1.05324E+03  8.814E-01  1.200E+01  6.000E-02  1.294E+00
   1    3    5     3     1    2.0000E+00  2.8252E-01   1.7175E+00  0.000E+00  0.000E+00  0.000E+00  1.07555E+03  1.909E+00  9.636E+00  7.227E-02  1.955E+00
   1    3    6     3     2    1.7175E+00  2.4905E-01   1.4684E+00  0.000E+00  0.000E+00  0.000E+00  1.07264E+03  1.727E+00  8.909E+00  6.682E-02  1.864E+00
   1    3    7     3     3    1.4684E+00  1.9718E-01   1.2712E+00  0.000E+00  0.000E+00  0.000E+00  1.06987E+03  1.555E+00  8.218E+00  5.547E-02  1.777E+00
   1    4    8     3     4    1.2712E+00  2.2567E-01   1.0456E+00  0.000E+00  0.000E+00  0.000E+00  1.06682E+03  1.364E+00  7.455E+00  6.709E-02  1.682E+00
   1    5    8     3     5    1.0456E+00  1.5790E-01   8.8768E-01  0.000E+00  0.000E+00  0.000E+00  1.06362E+03  1.164E+00  6.655E+00  4.991E-02  1.582E+00
   1    6    8     3     6    8.8768E-01  5.5980E-02   8.3170E-01  0.000E+00  0.000E+00  0.000E+00  1.06158E+03  1.036E+00  6.145E+00  1.844E-02  1.518E+00
   1    5   10     4     1    1.0000E+01  9.0919E-02   9.9091E+00  0.000E+00  0.000E+00  0.000E+00  1.07836E+03  6.368E-01  1.000E+01  2.500E-02  1.212E+00
   1    5    9     4     2    9.9091E+00  1.8158E-01   9.7275E+00  0.000E+00  0.000E+00  0.000E+00  1.07154E+03  6.315E-01  1.000E+01  5.000E-02  1.211E+00
   1    6    8     4     3    9.7275E+00  1.2689E-01   9.6006E+00  0.000E+00  0.000E+00  0.000E+00  1.06381E+03  6.256E-01  1.000E+01  3.500E-02  1.209E+00
   1    6    8     5     1    1.0432E+01  2.2686E-01   1.0205E+01  0.000E+00  0.000E+00  0.000E+00  1.05868E+03  6.790E-01  1.542E+01  6.166E-02  1.226E+00
   1    7    7     5     2    1.0205E+01  2.7894E-01   9.9265E+00  0.000E+00  0.000E+00  0.000E+00  1.05417E+03  6.732E-01  1.519E+01  7.594E-02  1.224E+00
   1    8    7     5     3    9.9265E+00  1.9221E-01   9.7343E+00  0.000E+00  0.000E+00  0.000E+00  1.04992E+03  6.676E-01  1.497E+01  5.241E-02  1.223E+00
   1    8    6     5     4    9.7343E+00  1.3577E-01   9.5985E+00  0.000E+00  0.000E+00  0.000E+00  1.04691E+03  6.637E-01  1.482E+01  3.706E-02  1.221E+00
   1    9    6     6     1    2.4276E+01  2.5176E-01   2.4024E+01  0.000E+00  0.000E+00  0.000E+00  1.04392E+03  1.196E+00  1.200E+01  6.000E-02  1.399E+00
   1   10    7     6     2    2.4024E+01  2.5131E-01   2.3773E+01  0.000E+00  0.000E+00  0.000E+00  1.03937E+03  1.188E+00  1.200E+01  6.000E-02  1.396E+00
   1   11    7     6     3    2.3773E+01  2.5086E-01   2.3522E+01  0.000E+00  0.000E+00  0.000E+00  1.03482E+03  1.181E+00  1.200E+01  6.000E-02  1.394E+00
   1   12    7     6     4    2.3522E+01  2.5041E-01   2.3271E+01  0.000E+00  0.000E+00  0.000E+00  1.03026E+03  1.173E+00  1.200E+01  6.000E-02  1.391E+00
   1   13    7     6     5    2.3271E+01  5.2826E-03   2.3266E+01  0.000E+00  0.000E+00  0.000E+00  1.02708E+03  1.170E+00  1.200E+01  2.400E-02  7.337E-02
   1   14    9     7     1    1.5000E+02  1.3434E+00   1.4866E+02  0.000E+00  0.000E+00  0.000E+00  1.03987E+03  2.288E+00  5.529E+01  5.593E-01  8.006E-01
   1   13    8     7     2    1.4866E+02  1.8869E+00   1.4677E+02  0.000E+00  0.000E+00  0.000E+00  1.03478E+03  2.279E+00  5.526E+01  6.148E-01  1.023E+00
   1   13    7     7     3    1.4677E+02  1.5807E+00   1.4519E+02  0.000E+00  0.000E+00  0.000E+00  1.02969E+03  2.270E+00  5.521E+01  5.584E-01  9.435E-01
   1   13    6     8     1    1.6846E+02  1.0277E+00   1.6743E+02  0.000E+00  0.000E+00  0.000E+00  1.02481E+03  2.939E+00  4.261E+01  4.342E-01  7.889E-01
   1   13    5     8     2    1.6743E+02  2.7936E-01   1.6715E+02  0.000E+00  0.000E+00  0.000E+00  1.01856E+03  2.934E+00  4.255E+01  4.336E-01  2.148E-01
   1   13    4     8     3    1.6715E+02 -2.0816E+00   1.6923E+02  0.000E+00  0.000E+00  0.000E+00  1.01232E+03  2.940E+00  4.264E+01  4.345E+00 -1.597E-01
   1   13    3     8     4    1.6923E+02 -3.4866E+00   1.7272E+02  0.000E+00  0.000E+00  0.000E+00  1.00608E+03  2.959E+00  4.290E+01  4.372E+00 -2.659E-01
   1   13    2     8     5    1.7272E+02 -2.5419E+00   1.7526E+02  0.000E+00  0.000E+00  0.000E+00  9.99853E+02  2.978E+00  4.318E+01  4.400E+00 -1.926E-01
   1   13    1     8     6    1.7526E+02 -1.9750E+00   1.7723E+02  0.000E+00  0.000E+00  0.000E+00  9.94867E+02  2.992E+00  4.339E+01  2.653E+00 -2.482E-01





UNSATURATED ZONE PACKAGE VOLUMETRIC BUDGET FOR  TIME STEP    30 STRESS PERIOD   29
  ------------------------------------------------------------------------------



     CUMULATIVE VOLUMES      L**3       RATES FOR THIS TIME STEP      L**3/T
     ------------------                 ------------------------

           IN:                                      IN:
           ---                                      ---
        INFILTRATION =  1128587662.2559          INFILTRATION =           7.8500

          OUT:                                     OUT:
          ----                                     ----
              UZF ET =  1037492274.0408                UZF ET =           7.8575
        UZF RECHARGE =      869439.6349          UZF RECHARGE =           0.0030

            IN - OUT =    90225948.5802              IN - OUT =      -1.0437E-02

          STORAGE:                                 STORAGE:
          --------                                 --------
      STORAGE CHANGE =    90226887.4085        STORAGE CHANGE =      -1.0437E-02

 PERCENT DISCREPANCY IS DIFFERENCE BETWEEN IN-OUT MINUS CHANGE IN STORAGE
 DIVIDED BY THE AVERAGE OF IN AND OUT TIMES 100

 PERCENT DISCREPANCY =          -0.00     PERCENT DISCREPANCY =           0.00






1
  VOLUMETRIC BUDGET FOR AGRICULTURAL FIELDS AT TIME STEP   30, STRESS PERIOD  29
  ------------------------------------------------------------------------------

     CUMULATIVE VOLUMES      L**3       RATES FOR THIS TIME STEP      L**3/T
     ------------------                 ------------------------

           IN:                                      IN:
           ---                                      ---
               AG WELLS  =   803945792.0000                 AG WELLS  =           3.4425
      DIVERSION SEGMENTS =           0.0000        DIVERSION SEGMENTS =           0.0000
           GW IRRIGATION =           0.0000             GW IRRIGATION =           0.0000
           SW IRRIGATION =           0.0000             SW IRRIGATION =           0.0000
        SYSTEM LOSSES GW =           0.0000          SYSTEM LOSSES GW =           0.0000
        SYSTEM LOSSES SW =           0.0000          SYSTEM LOSSES SW =           0.0000

                TOTAL IN =   803945792.0000                  TOTAL IN =           3.4425

          OUT:                                     OUT:
          ----                                     ----
               AG WELLS  =           0.0000                 AG WELLS  =           0.0000
      DIVERSION SEGMENTS =           0.0000        DIVERSION SEGMENTS =           0.0000
           GW IRRIGATION =   803945792.0000             GW IRRIGATION =           3.4425
           SW IRRIGATION =           0.0000             SW IRRIGATION =           0.0000
        SYSTEM LOSSES GW =           0.0000          SYSTEM LOSSES GW =           0.0000
        SYSTEM LOSSES SW =           0.0000          SYSTEM LOSSES SW =           0.0000

               TOTAL OUT =   803945792.0000                 TOTAL OUT =           3.4425

                IN - OUT =           0.0000                  IN - OUT =           0.0000

     PERCENT DISCREPANCY =           0.00         PERCENT DISCREPANCY =           0.00



1
  VOLUMETRIC BUDGET FOR ENTIRE MODEL AT END OF TIME STEP   30, STRESS PERIOD  29
  ------------------------------------------------------------------------------

     CUMULATIVE VOLUMES      L**3       RATES FOR THIS TIME STEP      L**3/T
     ------------------                 ------------------------

           IN:                                      IN:
           ---                                      ---
             STORAGE     =  1140615040.0000               STORAGE     =           3.8440
       CONSTANT HEAD     =           0.0000         CONSTANT HEAD     =           0.0000
     HEAD DEP BOUNDS     =    21052886.0000       HEAD DEP BOUNDS     =           0.2863
      STREAM LEAKAGE     =   908244416.0000        STREAM LEAKAGE     =          11.8519
        UZF RECHARGE     =      869439.6250          UZF RECHARGE     =       2.9707E-03
               GW ET     =           0.0000                 GW ET     =           0.0000
     SURFACE LEAKAGE     =           0.0000       SURFACE LEAKAGE     =           0.0000
           AG WELLS      =           0.0000             AG WELLS      =           0.0000

                TOTAL IN =  2070781696.0000                  TOTAL IN =          15.9851

          OUT:                                     OUT:
          ----                                     ----
             STORAGE     =   463842080.0000               STORAGE     =           2.1679
       CONSTANT HEAD     =           0.0000         CONSTANT HEAD     =           0.0000
     HEAD DEP BOUNDS     =    21630342.0000       HEAD DEP BOUNDS     =           0.2893
      STREAM LEAKAGE     =   764022464.0000        STREAM LEAKAGE     =          10.0850
        UZF RECHARGE     =           0.0000          UZF RECHARGE     =           0.0000
               GW ET     =    17343536.0000                 GW ET     =           0.0000
     SURFACE LEAKAGE     =           0.0000       SURFACE LEAKAGE     =           0.0000
           AG WELLS      =   803945792.0000             AG WELLS      =           3.4425

               TOTAL OUT =  2070784256.0000                 TOTAL OUT =          15.9846

                IN - OUT =       -2560.0000                  IN - OUT =       4.7588E-04

     PERCENT DISCREPANCY =          -0.00         PERCENT DISCREPANCY =           0.00






         TIME SUMMARY AT END OF TIME STEP   30 IN STRESS PERIOD   29
                    SECONDS     MINUTES      HOURS       DAYS        YEARS
                    -----------------------------------------------------------
   TIME STEP LENGTH  87667.      1461.1      24.352      1.0147     2.77799E-03
 STRESS PERIOD TIME 2.63000E+06  43833.      730.56      30.440     8.33397E-02
         TOTAL TIME 7.37266E+07 1.22878E+06  20480.      853.32      2.3363    
1
1
                            STRESS PERIOD NO.   30, LENGTH =   2630000.    
                            -----------------------------------------------

                              NUMBER OF TIME STEPS =    30

                               MULTIPLIER FOR DELT =     1.000

                            INITIAL TIME STEP SIZE =   87666.66    

 REUSING NON-PARAMETER GHB CELLS FROM LAST STRESS PERIOD

      2 GHB CELLS

 REUSING STREAM SEGMENT DATA FROM LAST STRESS PERIOD



            AREAL INFILTRATION RATE
 READING ON UNIT   19 WITH FORMAT: (10F4.0)            

            1           2           3           4           5           6           7           8           9          10
 ........................................................................................................................
   1   1.2000E-09   0.000       0.000       0.000       0.000       0.000       0.000       0.000       0.000       0.000    
   2   2.1000E-09  2.0000E-09  8.0000E-10  8.5000E-09   0.000       0.000       0.000       0.000       0.000       0.000    
   3   5.0000E-10  1.1000E-09  8.8000E-09  5.5000E-09   0.000       0.000       0.000       0.000       0.000       0.000    
   4   8.5000E-09  1.1000E-09  1.1000E-09  1.1000E-09  2.0000E-09   0.000       0.000       0.000       0.000       0.000    
   5   8.5000E-09  1.1000E-09  1.1000E-09  1.1000E-09  1.1000E-09   0.000       0.000       0.000       0.000       0.000    
   6   8.5000E-09  5.2000E-09  2.1000E-09  1.1000E-09  1.5000E-09   0.000       0.000       0.000       0.000       0.000    
   7   8.5000E-09  5.2000E-09  2.1000E-09  1.2000E-09  2.0000E-09   0.000       0.000       0.000       0.000       0.000    
   8   5.0000E-10  5.2000E-09  2.1000E-09  1.2000E-09  5.0000E-09   0.000       0.000       0.000       0.000       0.000    
   9   5.0000E-10  5.2000E-09  2.1000E-09  1.2000E-09  5.0000E-09   0.000       0.000       0.000       0.000       0.000    
  10   5.0000E-10  5.2000E-09  2.1000E-09  1.2000E-09  5.8000E-09   0.000       0.000       0.000       0.000       0.000    
  11   1.0000E-10  1.1000E-09  1.1000E-09  1.2000E-09  5.0000E-09   0.000       0.000       0.000       0.000       0.000    
  12   1.1000E-09  1.1000E-09  1.1000E-09  1.1000E-09  2.0000E-09   0.000       0.000       0.000       0.000       0.000    
  13   1.1000E-09  2.2000E-09  2.2000E-09  2.1000E-09  1.0000E-09   0.000       0.000       0.000       0.000       0.000    
  14   2.0000E-10  5.5000E-09  5.5000E-09  5.2000E-09  1.0000E-09   0.000       0.000       0.000       0.000       0.000    
  15    0.000      8.8000E-09  8.8000E-09   0.000       0.000       0.000       0.000       0.000       0.000       0.000    

                  ET RATE =  5.000000E-08

 USING ET EXTINCTION DEPTH FROM PREVIOUS STRESS PERIOD. CURRENT PERIOD IS:      30

 USING EXTINCTION WATER CONTENT FROM PREVIOUS STRESS PERIOD. CURRENT PERIOD IS:      30

 USING AIR ENTRY PRESSURE FROM PREVIOUS STRESS PERIOD. CURRENT PERIOD IS:      30

 USING ROOT PRESSURE HEAD FROM PREVIOUS STRESS PERIOD. CURRENT PERIOD IS:      30

 USING ROOT ACTIVITY FROM PREVIOUS STRESS PERIOD. CURRENT PERIOD IS:      30

 PROCESSING AG STRESS PERIOD DATA

 READING AG STRESS PERIOD DATA

 READING IRRIGATION WELL

 END PROCESSING AG STRESS PERIOD DATA OPTIONS
 
 SOLVING FOR HEAD 
                                                   Max.-Head-Change                         Max.-Flux-Residual
  Residual-Control   Outer-Iter.   Inner-Iter.     Column Row Layer    Maximum-Head-Change  Column Row Layer    Maximum-Flux-Residual          L2-NORM 
          0                 1           2             5    7     1      -0.1232818203E-01       5    7    1        -0.6530514895E+00      0.1694345060E+01
          0                 2           2             5    7     1       0.1199195722E-02       5    7    1         0.6530513954E-01      0.1694328654E+00
          0                 3           1             5    7     1      -0.8166082644E-04       5    7    1        -0.4571361821E-02      0.1186020391E-01

    ------------------------------------------------
       NWT REQUIRED            3 OUTER ITERATIONS 
       AND A TOTAL OF          5 INNER ITERATIONS.
    ------------------------------------------------

 NO OUTPUT CONTROL FOR STRESS PERIOD   30   TIME STEP    1
 
 SOLVING FOR HEAD 
                                                   Max.-Head-Change                         Max.-Flux-Residual
  Residual-Control   Outer-Iter.   Inner-Iter.     Column Row Layer    Maximum-Head-Change  Column Row Layer    Maximum-Flux-Residual          L2-NORM 
          0                 1           2             4    7     1      -0.1185951226E-01       5    7    1        -0.6274330195E+00      0.1624663079E+01
          0                 2           2             4    7     1       0.1153606915E-02       5    7    1         0.6274327977E-01      0.1624647749E+00
          0                 3           1             4    7     1      -0.7855635580E-04       5    7    1        -0.4392031701E-02      0.1137245028E-01

    ------------------------------------------------
       NWT REQUIRED            3 OUTER ITERATIONS 
       AND A TOTAL OF          5 INNER ITERATIONS.
    ------------------------------------------------

 NO OUTPUT CONTROL FOR STRESS PERIOD   30   TIME STEP    2
 
 SOLVING FOR HEAD 
                                                   Max.-Head-Change                         Max.-Flux-Residual
  Residual-Control   Outer-Iter.   Inner-Iter.     Column Row Layer    Maximum-Head-Change  Column Row Layer    Maximum-Flux-Residual          L2-NORM 
          0                 1           2             4    7     1      -0.1177383571E-01       4    7    1        -0.6168586381E+00      0.1591428195E+01
          0                 2           2             4    7     1       0.1145272763E-02       4    7    1         0.6168584378E-01      0.1591413649E+00
          0                 3           1             4    7     1      -0.7798883223E-04       4    7    1        -0.4318011116E-02      0.1113980507E-01

    ------------------------------------------------
       NWT REQUIRED            3 OUTER ITERATIONS 
       AND A TOTAL OF          5 INNER ITERATIONS.
    ------------------------------------------------

 NO OUTPUT CONTROL FOR STRESS PERIOD   30   TIME STEP    3
 
 SOLVING FOR HEAD 
                                                   Max.-Head-Change                         Max.-Flux-Residual
  Residual-Control   Outer-Iter.   Inner-Iter.     Column Row Layer    Maximum-Head-Change  Column Row Layer    Maximum-Flux-Residual          L2-NORM 
          0                 1           2             4    7     1      -0.1168254055E-01       4    7    1        -0.6123482950E+00      0.1559217820E+01
          0                 2           2             4    7     1       0.1136392089E-02       4    7    1         0.6123479947E-01      0.1559203998E+00
          0                 3           1             4    7     1      -0.7738409296E-04       4    7    1        -0.4286438095E-02      0.1091432861E-01

    ------------------------------------------------
       NWT REQUIRED            3 OUTER ITERATIONS 
       AND A TOTAL OF          5 INNER ITERATIONS.
    ------------------------------------------------

 NO OUTPUT CONTROL FOR STRESS PERIOD   30   TIME STEP    4
 
 SOLVING FOR HEAD 
                                                   Max.-Head-Change                         Max.-Flux-Residual
  Residual-Control   Outer-Iter.   Inner-Iter.     Column Row Layer    Maximum-Head-Change  Column Row Layer    Maximum-Flux-Residual          L2-NORM 
          0                 1           2             4    7     1      -0.1158637035E-01       4    7    1        -0.6075597065E+00      0.1528088596E+01
          0                 2           2             4    7     1       0.1127037223E-02       4    7    1         0.6075593165E-01      0.1528075638E+00
          0                 3           1             4    7     1      -0.7674706212E-04       4    7    1        -0.4252917402E-02      0.1069642557E-01

    ------------------------------------------------
       NWT REQUIRED            3 OUTER ITERATIONS 
       AND A TOTAL OF          5 INNER ITERATIONS.
    ------------------------------------------------

 NO OUTPUT CONTROL FOR STRESS PERIOD   30   TIME STEP    5
 
 SOLVING FOR HEAD 
                                                   Max.-Head-Change                         Max.-Flux-Residual
  Residual-Control   Outer-Iter.   Inner-Iter.     Column Row Layer    Maximum-Head-Change  Column Row Layer    Maximum-Flux-Residual          L2-NORM 
          0                 1           2             4    7     1      -0.1148588717E-01       4    7    1        -0.6025237222E+00      0.1498056059E+01
          0                 2           2             4    7     1       0.1117262836E-02       4    7    1         0.6025232528E-01      0.1498043542E+00
          0                 3           1             4    7     1      -0.7608146410E-04       4    7    1        -0.4217665036E-02      0.1048676801E-01

    ------------------------------------------------
       NWT REQUIRED            3 OUTER ITERATIONS 
       AND A TOTAL OF          5 INNER ITERATIONS.
    ------------------------------------------------

 NO OUTPUT CONTROL FOR STRESS PERIOD   30   TIME STEP    6
 
 SOLVING FOR HEAD 
                                                   Max.-Head-Change                         Max.-Flux-Residual
  Residual-Control   Outer-Iter.   Inner-Iter.     Column Row Layer    Maximum-Head-Change  Column Row Layer    Maximum-Flux-Residual          L2-NORM 
          0                 1           2             4    7     1      -0.1138146265E-01       4    7    1        -0.5972611850E+00      0.1469102270E+01
          0                 2           2             4    7     1       0.1107105077E-02       4    7    1         0.5972606450E-01      0.1469090277E+00
          0                 3           1             4    7     1      -0.7538975961E-04       4    7    1        -0.4180826835E-02      0.1028355246E-01

    ------------------------------------------------
       NWT REQUIRED            3 OUTER ITERATIONS 
       AND A TOTAL OF          5 INNER ITERATIONS.
    ------------------------------------------------

 NO OUTPUT CONTROL FOR STRESS PERIOD   30   TIME STEP    7
 
 SOLVING FOR HEAD 
                                                   Max.-Head-Change                         Max.-Flux-Residual
  Residual-Control   Outer-Iter.   Inner-Iter.     Column Row Layer    Maximum-Head-Change  Column Row Layer    Maximum-Flux-Residual          L2-NORM 
          0                 1           2             4    7     1      -0.1127357193E-01       4    7    1        -0.5917981138E+00      0.1441203171E+01
          0                 2           2             4    7     1       0.1096610165E-02       4    7    1         0.5917975117E-01      0.1441191504E+00
          0                 3           1             4    7     1      -0.7467509543E-04       4    7    1        -0.4142584951E-02      0.1008824881E-01

    ------------------------------------------------
       NWT REQUIRED            3 OUTER ITERATIONS 
       AND A TOTAL OF          5 INNER ITERATIONS.
    ------------------------------------------------

 NO OUTPUT CONTROL FOR STRESS PERIOD   30   TIME STEP    8
 
 SOLVING FOR HEAD 
                                                   Max.-Head-Change                         Max.-Flux-Residual
  Residual-Control   Outer-Iter.   Inner-Iter.     Column Row Layer    Maximum-Head-Change  Column Row Layer    Maximum-Flux-Residual          L2-NORM 
          0                 1           2             4    7     1      -0.1116278712E-01       4    7    1        -0.5861658924E+00      0.1414339607E+01
          0                 2           2             4    7     1       0.1085833746E-02       4    7    1         0.5861652357E-01      0.1414328275E+00
          0                 3           1             4    7     1      -0.7394126238E-04       4    7    1        -0.4103159047E-02      0.9900197048E-02

    ------------------------------------------------
       NWT REQUIRED            3 OUTER ITERATIONS 
       AND A TOTAL OF          5 INNER ITERATIONS.
    ------------------------------------------------

 NO OUTPUT CONTROL FOR STRESS PERIOD   30   TIME STEP    9
 
 SOLVING FOR HEAD 
                                                   Max.-Head-Change                         Max.-Flux-Residual
  Residual-Control   Outer-Iter.   Inner-Iter.     Column Row Layer    Maximum-Head-Change  Column Row Layer    Maximum-Flux-Residual          L2-NORM 
          0                 1           2             4    7     1      -0.1104949979E-01       4    7    1        -0.5803864807E+00      0.1388465793E+01
          0                 2           2             4    7     1       0.1074813910E-02       4    7    1         0.5803857763E-01      0.1388454734E+00
          0                 3           1             4    7     1      -0.7319085285E-04       4    7    1        -0.4062702844E-02      0.9719083911E-02

    ------------------------------------------------
       NWT REQUIRED            3 OUTER ITERATIONS 
       AND A TOTAL OF          5 INNER ITERATIONS.
    ------------------------------------------------

 NO OUTPUT CONTROL FOR STRESS PERIOD   30   TIME STEP   10
 
 SOLVING FOR HEAD 
                                                   Max.-Head-Change                         Max.-Flux-Residual
  Residual-Control   Outer-Iter.   Inner-Iter.     Column Row Layer    Maximum-Head-Change  Column Row Layer    Maximum-Flux-Residual          L2-NORM 
          0                 1           2             4    7     1      -0.1093380825E-01       4    7    1        -0.5744652538E+00      0.1363539938E+01
          0                 2           2             4    7     1       0.1063560220E-02       4    7    1         0.5744645081E-01      0.1363529260E+00
          0                 3           1             4    7     1      -0.7242451888E-04       4    7    1        -0.4021253988E-02      0.9544321583E-02

    ------------------------------------------------
       NWT REQUIRED            3 OUTER ITERATIONS 
       AND A TOTAL OF          5 INNER ITERATIONS.
    ------------------------------------------------

 NO OUTPUT CONTROL FOR STRESS PERIOD   30   TIME STEP   11
 
 SOLVING FOR HEAD 
                                                   Max.-Head-Change                         Max.-Flux-Residual
  Residual-Control   Outer-Iter.   Inner-Iter.     Column Row Layer    Maximum-Head-Change  Column Row Layer    Maximum-Flux-Residual          L2-NORM 
          0                 1           2             4    7     1      -0.1081632706E-01       4    7    1        -0.5684362108E+00      0.1339525203E+01
          0                 2           2             4    7     1       0.1052062006E-02       4    7    1         0.5684354295E-01      0.1338153647E+00
          0                 3           1             4    7     1      -0.7164153400E-04       4    7    1        -0.3979050474E-02      0.9366998961E-02

    ------------------------------------------------
       NWT REQUIRED            3 OUTER ITERATIONS 
       AND A TOTAL OF          5 INNER ITERATIONS.
    ------------------------------------------------

 NO OUTPUT CONTROL FOR STRESS PERIOD   30   TIME STEP   12
 
 SOLVING FOR HEAD 
                                                   Max.-Head-Change                         Max.-Flux-Residual
  Residual-Control   Outer-Iter.   Inner-Iter.     Column Row Layer    Maximum-Head-Change  Column Row Layer    Maximum-Flux-Residual          L2-NORM 
          0                 1           2             4    7     1      -0.1069746897E-01       4    7    1        -0.5623129260E+00      0.1316510600E+01
          0                 2           2             4    7     1       0.1040570785E-02       4    7    1         0.5623121171E-01      0.1316500957E+00
          0                 3           1             4    7     1      -0.7085902459E-04       4    7    1        -0.3936187283E-02      0.9215409601E-02

    ------------------------------------------------
       NWT REQUIRED            3 OUTER ITERATIONS 
       AND A TOTAL OF          5 INNER ITERATIONS.
    ------------------------------------------------

 NO OUTPUT CONTROL FOR STRESS PERIOD   30   TIME STEP   13
 
 SOLVING FOR HEAD 
                                                   Max.-Head-Change                         Max.-Flux-Residual
  Residual-Control   Outer-Iter.   Inner-Iter.     Column Row Layer    Maximum-Head-Change  Column Row Layer    Maximum-Flux-Residual          L2-NORM 
          0                 1           2             4    7     1      -0.1057742717E-01       4    7    1        -0.5561196606E+00      0.1294369007E+01
          0                 2           2             4    7     1       0.1028893957E-02       4    7    1         0.5561188273E-01      0.1294359532E+00
          0                 3           1             4    7     1      -0.7006387588E-04       4    7    1        -0.3892834262E-02      0.9060427923E-02

    ------------------------------------------------
       NWT REQUIRED            3 OUTER ITERATIONS 
       AND A TOTAL OF          5 INNER ITERATIONS.
    ------------------------------------------------

 NO OUTPUT CONTROL FOR STRESS PERIOD   30   TIME STEP   14
 
 SOLVING FOR HEAD 
                                                   Max.-Head-Change                         Max.-Flux-Residual
  Residual-Control   Outer-Iter.   Inner-Iter.     Column Row Layer    Maximum-Head-Change  Column Row Layer    Maximum-Flux-Residual          L2-NORM 
          0                 1           2             4    7     1      -0.1045625972E-01       4    7    1        -0.5498557501E+00      0.1273014226E+01
          0                 2           2             4    7     1       0.1017107640E-02       4    7    1         0.5498548971E-01      0.1273005067E+00
          0                 3           1             4    7     1      -0.6926127209E-04       4    7    1        -0.3848986755E-02      0.8910925742E-02

    ------------------------------------------------
       NWT REQUIRED            3 OUTER ITERATIONS 
       AND A TOTAL OF          5 INNER ITERATIONS.
    ------------------------------------------------

 NO OUTPUT CONTROL FOR STRESS PERIOD   30   TIME STEP   15
 
 SOLVING FOR HEAD 
                                                   Max.-Head-Change                         Max.-Flux-Residual
  Residual-Control   Outer-Iter.   Inner-Iter.     Column Row Layer    Maximum-Head-Change  Column Row Layer    Maximum-Flux-Residual          L2-NORM 
          0                 1           2             4    7     1      -0.1033447833E-01       4    7    1        -0.5435494787E+00      0.1252423962E+01
          0                 2           2             4    7     1       0.1005261609E-02       4    7    1         0.5435486097E-01      0.1252414644E+00
          0                 3           1             4    7     1      -0.6845460118E-04       4    7    1        -0.3804842715E-02      0.8766802103E-02

    ------------------------------------------------
       NWT REQUIRED            3 OUTER ITERATIONS 
       AND A TOTAL OF          5 INNER ITERATIONS.
    ------------------------------------------------

 NO OUTPUT CONTROL FOR STRESS PERIOD   30   TIME STEP   16
 
 SOLVING FOR HEAD 
                                                   Max.-Head-Change                         Max.-Flux-Residual
  Residual-Control   Outer-Iter.   Inner-Iter.     Column Row Layer    Maximum-Head-Change  Column Row Layer    Maximum-Flux-Residual          L2-NORM 
          0                 1           2             4    7     1      -0.1021216308E-01       4    7    1        -0.5372054656E+00      0.1232555314E+01
          0                 2           2             4    7     1       0.9933636541E-03       4    7    1         0.5372045841E-01      0.1232546426E+00
          0                 3           1             4    7     1      -0.6764439485E-04       4    7    1        -0.3760434537E-02      0.8627756399E-02

    ------------------------------------------------
       NWT REQUIRED            3 OUTER ITERATIONS 
       AND A TOTAL OF          5 INNER ITERATIONS.
    ------------------------------------------------

 NO OUTPUT CONTROL FOR STRESS PERIOD   30   TIME STEP   17
 
 SOLVING FOR HEAD 
                                                   Max.-Head-Change                         Max.-Flux-Residual
  Residual-Control   Outer-Iter.   Inner-Iter.     Column Row Layer    Maximum-Head-Change  Column Row Layer    Maximum-Flux-Residual          L2-NORM 
          0                 1           2             4    7     1      -0.1008951990E-01       4    7    1        -0.5308348484E+00      0.1213382033E+01
          0                 2           2             4    7     1       0.9814338051E-03       4    7    1         0.5308339576E-01      0.1213373036E+00
          0                 3           1             4    7     1      -0.6683201680E-04       4    7    1        -0.3715840156E-02      0.8493511522E-02

    ------------------------------------------------
       NWT REQUIRED            3 OUTER ITERATIONS 
       AND A TOTAL OF          5 INNER ITERATIONS.
    ------------------------------------------------

 NO OUTPUT CONTROL FOR STRESS PERIOD   30   TIME STEP   18
 
 SOLVING FOR HEAD 
                                                   Max.-Head-Change                         Max.-Flux-Residual
  Residual-Control   Outer-Iter.   Inner-Iter.     Column Row Layer    Maximum-Head-Change  Column Row Layer    Maximum-Flux-Residual          L2-NORM 
          0                 1           2             4    7     1      -0.9966863852E-02       4    7    1        -0.5244555287E+00      0.1194873736E+01
          0                 2           2             4    7     1       0.9695027080E-03       4    7    1         0.5244546314E-01      0.1194859997E+00
          0                 3           1             4    7     1      -0.6601955343E-04       4    7    1        -0.3671184859E-02      0.8363920435E-02

    ------------------------------------------------
       NWT REQUIRED            3 OUTER ITERATIONS 
       AND A TOTAL OF          5 INNER ITERATIONS.
    ------------------------------------------------

 NO OUTPUT CONTROL FOR STRESS PERIOD   30   TIME STEP   19
 
 SOLVING FOR HEAD 
                                                   Max.-Head-Change                         Max.-Flux-Residual
  Residual-Control   Outer-Iter.   Inner-Iter.     Column Row Layer    Maximum-Head-Change  Column Row Layer    Maximum-Flux-Residual          L2-NORM 
          0                 1           2             4    7     1      -0.9844092001E-02       4    7    1        -0.5180618122E+00      0.1177007609E+01
          0                 2           2             4    7     1       0.9575603503E-03       4    7    1         0.5180609111E-01      0.1176985513E+00
          0                 3           1             4    7     1      -0.6520632313E-04       4    7    1        -0.3626428798E-02      0.8238804147E-02

    ------------------------------------------------
       NWT REQUIRED            3 OUTER ITERATIONS 
       AND A TOTAL OF          5 INNER ITERATIONS.
    ------------------------------------------------

 NO OUTPUT CONTROL FOR STRESS PERIOD   30   TIME STEP   20
 
 SOLVING FOR HEAD 
                                                   Max.-Head-Change                         Max.-Flux-Residual
  Residual-Control   Outer-Iter.   Inner-Iter.     Column Row Layer    Maximum-Head-Change  Column Row Layer    Maximum-Flux-Residual          L2-NORM 
          0                 1           2             4    7     1      -0.9721637870E-02       4    7    1        -0.5116776147E+00      0.1159736801E+01
          0                 2           2             4    7     1       0.9456489017E-03       4    7    1         0.5116767123E-01      0.1159716296E+00
          0                 3           1             4    7     1      -0.6439519720E-04       4    7    1        -0.3581739375E-02      0.8117898109E-02

    ------------------------------------------------
       NWT REQUIRED            3 OUTER ITERATIONS 
       AND A TOTAL OF          5 INNER ITERATIONS.
    ------------------------------------------------

 NO OUTPUT CONTROL FOR STRESS PERIOD   30   TIME STEP   21
 
 SOLVING FOR HEAD 
                                                   Max.-Head-Change                         Max.-Flux-Residual
  Residual-Control   Outer-Iter.   Inner-Iter.     Column Row Layer    Maximum-Head-Change  Column Row Layer    Maximum-Flux-Residual          L2-NORM 
          0                 1           2             4    7     1      -0.9599505166E-02       4    7    1        -0.5053033851E+00      0.1143043885E+01
          0                 2           2             4    7     1       0.9337687226E-03       4    7    1         0.5053024835E-01      0.1143024620E+00
          0                 3           1             4    7     1      -0.6358620145E-04       4    7    1        -0.3537119772E-02      0.8001067697E-02

    ------------------------------------------------
       NWT REQUIRED            3 OUTER ITERATIONS 
       AND A TOTAL OF          5 INNER ITERATIONS.
    ------------------------------------------------

 NO OUTPUT CONTROL FOR STRESS PERIOD   30   TIME STEP   22
 
 SOLVING FOR HEAD 
                                                   Max.-Head-Change                         Max.-Flux-Residual
  Residual-Control   Outer-Iter.   Inner-Iter.     Column Row Layer    Maximum-Head-Change  Column Row Layer    Maximum-Flux-Residual          L2-NORM 
          0                 1           2             4    7     1      -0.9477823797E-02       4    7    1        -0.4989464199E+00      0.1126907247E+01
          0                 2           2             4    7     1       0.9219324482E-03       4    7    1         0.4989455208E-01      0.1126889114E+00
          0                 3           1             4    7     1      -0.6278019524E-04       4    7    1        -0.3492621003E-02      0.7888131538E-02

    ------------------------------------------------
       NWT REQUIRED            3 OUTER ITERATIONS 
       AND A TOTAL OF          5 INNER ITERATIONS.
    ------------------------------------------------

 NO OUTPUT CONTROL FOR STRESS PERIOD   30   TIME STEP   23
 
 SOLVING FOR HEAD 
                                                   Max.-Head-Change                         Max.-Flux-Residual
  Residual-Control   Outer-Iter.   Inner-Iter.     Column Row Layer    Maximum-Head-Change  Column Row Layer    Maximum-Flux-Residual          L2-NORM 
          0                 1           2             4    7     1      -0.9356713344E-02       4    7    1        -0.4926135739E+00      0.1111301543E+01
          0                 2           2             4    7     1       0.9101517106E-03       4    7    1         0.4926126789E-01      0.1111284509E+00
          0                 3           1             4    7     1      -0.6197797036E-04       4    7    1        -0.3448291085E-02      0.7778879479E-02

    ------------------------------------------------
       NWT REQUIRED            3 OUTER ITERATIONS 
       AND A TOTAL OF          5 INNER ITERATIONS.
    ------------------------------------------------

 NO OUTPUT CONTROL FOR STRESS PERIOD   30   TIME STEP   24
 
 SOLVING FOR HEAD 
                                                   Max.-Head-Change                         Max.-Flux-Residual
  Residual-Control   Outer-Iter.   Inner-Iter.     Column Row Layer    Maximum-Head-Change  Column Row Layer    Maximum-Flux-Residual          L2-NORM 
          0                 1           2             4    7     1      -0.9236285266E-02       4    7    1        -0.4863109279E+00      0.1096209170E+01
          0                 2           2             4    7     1       0.8984373522E-03       4    7    1         0.4863100387E-01      0.1096192688E+00
          0                 3           1             4    7     1      -0.6118026605E-04       4    7    1        -0.3404172570E-02      0.7673257718E-02

    ------------------------------------------------
       NWT REQUIRED            3 OUTER ITERATIONS 
       AND A TOTAL OF          5 INNER ITERATIONS.
    ------------------------------------------------

 NO OUTPUT CONTROL FOR STRESS PERIOD   30   TIME STEP   25
 
 SOLVING FOR HEAD 
                                                   Max.-Head-Change                         Max.-Flux-Residual
  Residual-Control   Outer-Iter.   Inner-Iter.     Column Row Layer    Maximum-Head-Change  Column Row Layer    Maximum-Flux-Residual          L2-NORM 
          0                 1           2             4    7     1      -0.9116772053E-02       4    7    1        -0.4800514835E+00      0.1081609228E+01
          0                 2           2             4    7     1       0.8868119873E-03       4    7    1         0.4800506016E-01      0.1081593448E+00
          0                 3           1             4    7     1      -0.6038862177E-04       4    7    1        -0.3360356503E-02      0.7571060140E-02

    ------------------------------------------------
       NWT REQUIRED            3 OUTER ITERATIONS 
       AND A TOTAL OF          5 INNER ITERATIONS.
    ------------------------------------------------

 NO OUTPUT CONTROL FOR STRESS PERIOD   30   TIME STEP   26
 
 SOLVING FOR HEAD 
                                                   Max.-Head-Change                         Max.-Flux-Residual
  Residual-Control   Outer-Iter.   Inner-Iter.     Column Row Layer    Maximum-Head-Change  Column Row Layer    Maximum-Flux-Residual          L2-NORM 
          0                 1           2             4    7     1      -0.8998119238E-02       4    7    1        -0.4738327301E+00      0.1067470876E+01
          0                 2           2             4    7     1       0.8752703169E-03       4    7    1         0.4738318564E-01      0.1067455834E+00
          0                 3           1             4    7     1      -0.5960267658E-04       4    7    1        -0.3316825257E-02      0.7472105554E-02

    ------------------------------------------------
       NWT REQUIRED            3 OUTER ITERATIONS 
       AND A TOTAL OF          5 INNER ITERATIONS.
    ------------------------------------------------

 NO OUTPUT CONTROL FOR STRESS PERIOD   30   TIME STEP   27
 
 SOLVING FOR HEAD 
                                                   Max.-Head-Change                         Max.-Flux-Residual
  Residual-Control   Outer-Iter.   Inner-Iter.     Column Row Layer    Maximum-Head-Change  Column Row Layer    Maximum-Flux-Residual          L2-NORM 
          0                 1           2             4    7     1      -0.8880411585E-02       4    7    1        -0.4676589472E+00      0.1053789444E+01
          0                 2           2             4    7     1       0.8638205866E-03       4    7    1         0.4676580829E-01      0.1053774791E+00
          0                 3           1             4    7     1      -0.5882299198E-04       4    7    1        -0.3273608807E-02      0.7376315259E-02

    ------------------------------------------------
       NWT REQUIRED            3 OUTER ITERATIONS 
       AND A TOTAL OF          5 INNER ITERATIONS.
    ------------------------------------------------

 NO OUTPUT CONTROL FOR STRESS PERIOD   30   TIME STEP   28
 
 SOLVING FOR HEAD 
                                                   Max.-Head-Change                         Max.-Flux-Residual
  Residual-Control   Outer-Iter.   Inner-Iter.     Column Row Layer    Maximum-Head-Change  Column Row Layer    Maximum-Flux-Residual          L2-NORM 
          0                 1           2             4    7     1      -0.8763720944E-02       4    7    1        -0.4615346491E+00      0.1040537478E+01
          0                 2           2             4    7     1       0.8524697853E-03       4    7    1         0.4615337950E-01      0.1040523310E+00
          0                 3           1             4    7     1      -0.5805004465E-04       4    7    1        -0.3230738770E-02      0.7283570013E-02

    ------------------------------------------------
       NWT REQUIRED            3 OUTER ITERATIONS 
       AND A TOTAL OF          5 INNER ITERATIONS.
    ------------------------------------------------

 NO OUTPUT CONTROL FOR STRESS PERIOD   30   TIME STEP   29
 
 SOLVING FOR HEAD 
                                                   Max.-Head-Change                         Max.-Flux-Residual
  Residual-Control   Outer-Iter.   Inner-Iter.     Column Row Layer    Maximum-Head-Change  Column Row Layer    Maximum-Flux-Residual          L2-NORM 
          0                 1           2             4    7     1      -0.8648249453E-02       4    7    1        -0.4554709022E+00      0.1027706285E+01
          0                 2           2             4    7     1       0.8412375748E-03       4    7    1         0.4554700591E-01      0.1027692790E+00
          0                 3           1             4    7     1      -0.5728517249E-04       4    7    1        -0.3188292586E-02      0.7193770285E-02

    ------------------------------------------------
       NWT REQUIRED            3 OUTER ITERATIONS 
       AND A TOTAL OF          5 INNER ITERATIONS.
    ------------------------------------------------

 NO OUTPUT CONTROL FOR STRESS PERIOD   30   TIME STEP   30



 STREAM LISTING     PERIOD     30   STEP       30

 LAYER ROW COL. STREAM  RCH.  FLOW INTO     FLOW TO   FLOW OUT OF   OVRLND.     DIRECT     STREAM       STREAM     STREAM     STREAM   STREAMBED  STREAMBED
                SEG.NO.  NO.  STRM. RCH.    AQUIFER    STRM. RCH.    RUNOFF     PRECIP       ET          HEAD       DEPTH      WIDTH   CONDCTNC.   GRADIENT

   1    1    1     1     1    1.9000E+01  2.1427E-01   1.8786E+01  0.000E+00  0.000E+00  0.000E+00  1.09413E+03  1.082E+00  1.166E+01  5.249E-02  1.361E+00
   1    2    2     1     2    1.8786E+01  3.3054E-01   1.8455E+01  0.000E+00  0.000E+00  0.000E+00  1.08914E+03  1.077E+00  1.158E+01  8.107E-02  1.359E+00
   1    3    3     1     3    1.8455E+01  2.8064E-01   1.8175E+01  0.000E+00  0.000E+00  0.000E+00  1.08349E+03  1.072E+00  1.149E+01  6.892E-02  1.357E+00
   1    3    4     1     4    1.8175E+01  2.5740E-01   1.7917E+01  0.000E+00  0.000E+00  0.000E+00  1.07848E+03  1.068E+00  1.140E+01  6.328E-02  1.356E+00
   1    4    5     2     1    1.5917E+01  3.0542E-01   1.5612E+01  0.000E+00  0.000E+00  0.000E+00  1.07285E+03  9.157E-01  1.200E+01  7.800E-02  1.305E+00
   1    5    6     2     2    1.5612E+01  2.3438E-01   1.5377E+01  0.000E+00  0.000E+00  0.000E+00  1.06742E+03  9.063E-01  1.200E+01  6.000E-02  1.302E+00
   1    6    6     2     3    1.5377E+01  2.3388E-01   1.5143E+01  0.000E+00  0.000E+00  0.000E+00  1.06269E+03  8.980E-01  1.200E+01  6.000E-02  1.299E+00
   1    7    6     2     4    1.5143E+01  2.3338E-01   1.4910E+01  0.000E+00  0.000E+00  0.000E+00  1.05797E+03  8.897E-01  1.200E+01  6.000E-02  1.297E+00
   1    8    6     2     5    1.4910E+01  2.3289E-01   1.4677E+01  0.000E+00  0.000E+00  0.000E+00  1.05324E+03  8.814E-01  1.200E+01  6.000E-02  1.294E+00
   1    3    5     3     1    2.0000E+00  2.8252E-01   1.7175E+00  0.000E+00  0.000E+00  0.000E+00  1.07555E+03  1.909E+00  9.636E+00  7.227E-02  1.955E+00
   1    3    6     3     2    1.7175E+00  2.4905E-01   1.4684E+00  0.000E+00  0.000E+00  0.000E+00  1.07264E+03  1.727E+00  8.909E+00  6.682E-02  1.864E+00
   1    3    7     3     3    1.4684E+00  1.9718E-01   1.2712E+00  0.000E+00  0.000E+00  0.000E+00  1.06987E+03  1.555E+00  8.218E+00  5.547E-02  1.777E+00
   1    4    8     3     4    1.2712E+00  2.2567E-01   1.0456E+00  0.000E+00  0.000E+00  0.000E+00  1.06682E+03  1.364E+00  7.455E+00  6.709E-02  1.682E+00
   1    5    8     3     5    1.0456E+00  1.5790E-01   8.8768E-01  0.000E+00  0.000E+00  0.000E+00  1.06362E+03  1.164E+00  6.655E+00  4.991E-02  1.582E+00
   1    6    8     3     6    8.8768E-01  5.5980E-02   8.3170E-01  0.000E+00  0.000E+00  0.000E+00  1.06158E+03  1.036E+00  6.145E+00  1.844E-02  1.518E+00
   1    5   10     4     1    1.0000E+01  9.0919E-02   9.9091E+00  0.000E+00  0.000E+00  0.000E+00  1.07836E+03  6.368E-01  1.000E+01  2.500E-02  1.212E+00
   1    5    9     4     2    9.9091E+00  1.8158E-01   9.7275E+00  0.000E+00  0.000E+00  0.000E+00  1.07154E+03  6.315E-01  1.000E+01  5.000E-02  1.211E+00
   1    6    8     4     3    9.7275E+00  1.2689E-01   9.6006E+00  0.000E+00  0.000E+00  0.000E+00  1.06381E+03  6.256E-01  1.000E+01  3.500E-02  1.209E+00
   1    6    8     5     1    1.0432E+01  2.2686E-01   1.0205E+01  0.000E+00  0.000E+00  0.000E+00  1.05868E+03  6.790E-01  1.542E+01  6.166E-02  1.226E+00
   1    7    7     5     2    1.0205E+01  2.7894E-01   9.9265E+00  0.000E+00  0.000E+00  0.000E+00  1.05417E+03  6.732E-01  1.519E+01  7.594E-02  1.224E+00
   1    8    7     5     3    9.9265E+00  1.9221E-01   9.7343E+00  0.000E+00  0.000E+00  0.000E+00  1.04992E+03  6.676E-01  1.497E+01  5.241E-02  1.223E+00
   1    8    6     5     4    9.7343E+00  1.3577E-01   9.5985E+00  0.000E+00  0.000E+00  0.000E+00  1.04691E+03  6.637E-01  1.482E+01  3.706E-02  1.221E+00
   1    9    6     6     1    2.4276E+01  2.5176E-01   2.4024E+01  0.000E+00  0.000E+00  0.000E+00  1.04392E+03  1.196E+00  1.200E+01  6.000E-02  1.399E+00
   1   10    7     6     2    2.4024E+01  2.5131E-01   2.3773E+01  0.000E+00  0.000E+00  0.000E+00  1.03937E+03  1.188E+00  1.200E+01  6.000E-02  1.396E+00
   1   11    7     6     3    2.3773E+01  2.5086E-01   2.3522E+01  0.000E+00  0.000E+00  0.000E+00  1.03482E+03  1.181E+00  1.200E+01  6.000E-02  1.394E+00
   1   12    7     6     4    2.3522E+01  2.5041E-01   2.3271E+01  0.000E+00  0.000E+00  0.000E+00  1.03026E+03  1.173E+00  1.200E+01  6.000E-02  1.391E+00
   1   13    7     6     5    2.3271E+01  5.7624E-03   2.3266E+01  0.000E+00  0.000E+00  0.000E+00  1.02708E+03  1.170E+00  1.200E+01  2.400E-02  8.003E-02
   1   14    9     7     1    1.5000E+02  1.3452E+00   1.4865E+02  0.000E+00  0.000E+00  0.000E+00  1.03987E+03  2.288E+00  5.529E+01  5.593E-01  8.017E-01
   1   13    8     7     2    1.4865E+02  1.8942E+00   1.4676E+02  0.000E+00  0.000E+00  0.000E+00  1.03478E+03  2.279E+00  5.526E+01  6.148E-01  1.027E+00
   1   13    7     7     3    1.4676E+02  1.5918E+00   1.4517E+02  0.000E+00  0.000E+00  0.000E+00  1.02969E+03  2.270E+00  5.521E+01  5.584E-01  9.502E-01
   1   13    6     8     1    1.6843E+02  1.0366E+00   1.6740E+02  0.000E+00  0.000E+00  0.000E+00  1.02481E+03  2.939E+00  4.261E+01  4.342E-01  7.958E-01
   1   13    5     8     2    1.6740E+02  2.8573E-01   1.6711E+02  0.000E+00  0.000E+00  0.000E+00  1.01856E+03  2.934E+00  4.255E+01  4.336E-01  2.197E-01
   1   13    4     8     3    1.6711E+02 -2.0638E+00   1.6918E+02  0.000E+00  0.000E+00  0.000E+00  1.01232E+03  2.940E+00  4.263E+01  4.344E+00 -1.584E-01
   1   13    3     8     4    1.6918E+02 -3.4705E+00   1.7265E+02  0.000E+00  0.000E+00  0.000E+00  1.00608E+03  2.958E+00  4.289E+01  4.371E+00 -2.647E-01
   1   13    2     8     5    1.7265E+02 -2.5369E+00   1.7518E+02  0.000E+00  0.000E+00  0.000E+00  9.99853E+02  2.978E+00  4.317E+01  4.400E+00 -1.922E-01
   1   13    1     8     6    1.7518E+02 -1.9736E+00   1.7716E+02  0.000E+00  0.000E+00  0.000E+00  9.94867E+02  2.992E+00  4.338E+01  2.653E+00 -2.480E-01





UNSATURATED ZONE PACKAGE VOLUMETRIC BUDGET FOR  TIME STEP    30 STRESS PERIOD   30
  ------------------------------------------------------------------------------



     CUMULATIVE VOLUMES      L**3       RATES FOR THIS TIME STEP      L**3/T
     ------------------                 ------------------------

           IN:                                      IN:
           ---                                      ---
        INFILTRATION =  1159027555.2734          INFILTRATION =          11.5955

          OUT:                                     OUT:
          ----                                     ----
              UZF ET =  1068019997.6990                UZF ET =          11.6075
        UZF RECHARGE =      876576.5007          UZF RECHARGE =           0.0012

            IN - OUT =    90130981.0738              IN - OUT =      -1.3202E-02

          STORAGE:                                 STORAGE:
          --------                                 --------
      STORAGE CHANGE =    90131919.3814        STORAGE CHANGE =      -1.3202E-02

 PERCENT DISCREPANCY IS DIFFERENCE BETWEEN IN-OUT MINUS CHANGE IN STORAGE
 DIVIDED BY THE AVERAGE OF IN AND OUT TIMES 100

 PERCENT DISCREPANCY =          -0.00     PERCENT DISCREPANCY =           0.00






1
  VOLUMETRIC BUDGET FOR AGRICULTURAL FIELDS AT TIME STEP   30, STRESS PERIOD  30
  ------------------------------------------------------------------------------

     CUMULATIVE VOLUMES      L**3       RATES FOR THIS TIME STEP      L**3/T
     ------------------                 ------------------------

           IN:                                      IN:
           ---                                      ---
               AG WELLS  =   822793920.0000                 AG WELLS  =           7.1880
      DIVERSION SEGMENTS =           0.0000        DIVERSION SEGMENTS =           0.0000
           GW IRRIGATION =           0.0000             GW IRRIGATION =           0.0000
           SW IRRIGATION =           0.0000             SW IRRIGATION =           0.0000
        SYSTEM LOSSES GW =           0.0000          SYSTEM LOSSES GW =           0.0000
        SYSTEM LOSSES SW =           0.0000          SYSTEM LOSSES SW =           0.0000

                TOTAL IN =   822793920.0000                  TOTAL IN =           7.1880

          OUT:                                     OUT:
          ----                                     ----
               AG WELLS  =           0.0000                 AG WELLS  =           0.0000
      DIVERSION SEGMENTS =           0.0000        DIVERSION SEGMENTS =           0.0000
           GW IRRIGATION =   822793920.0000             GW IRRIGATION =           7.1880
           SW IRRIGATION =           0.0000             SW IRRIGATION =           0.0000
        SYSTEM LOSSES GW =           0.0000          SYSTEM LOSSES GW =           0.0000
        SYSTEM LOSSES SW =           0.0000          SYSTEM LOSSES SW =           0.0000

               TOTAL OUT =   822793920.0000                 TOTAL OUT =           7.1880

                IN - OUT =           0.0000                  IN - OUT =           0.0000

     PERCENT DISCREPANCY =           0.00         PERCENT DISCREPANCY =           0.00



1
  VOLUMETRIC BUDGET FOR ENTIRE MODEL AT END OF TIME STEP   30, STRESS PERIOD  30
  ------------------------------------------------------------------------------

     CUMULATIVE VOLUMES      L**3       RATES FOR THIS TIME STEP      L**3/T
     ------------------                 ------------------------

           IN:                                      IN:
           ---                                      ---
             STORAGE     =  1157552128.0000               STORAGE     =           5.8610
       CONSTANT HEAD     =           0.0000         CONSTANT HEAD     =           0.0000
     HEAD DEP BOUNDS     =    21805952.0000       HEAD DEP BOUNDS     =           0.2864
      STREAM LEAKAGE     =   939465088.0000        STREAM LEAKAGE     =          11.8879
        UZF RECHARGE     =      876576.5000          UZF RECHARGE     =       1.2170E-03
               GW ET     =           0.0000                 GW ET     =           0.0000
     SURFACE LEAKAGE     =           0.0000       SURFACE LEAKAGE     =           0.0000
           AG WELLS      =           0.0000             AG WELLS      =           0.0000

                TOTAL IN =  2119699712.0000                  TOTAL IN =          18.0365

          OUT:                                     OUT:
          ----                                     ----
             STORAGE     =   466682208.0000               STORAGE     =           0.5129
       CONSTANT HEAD     =           0.0000         CONSTANT HEAD     =           0.0000
     HEAD DEP BOUNDS     =    22391026.0000       HEAD DEP BOUNDS     =           0.2892
      STREAM LEAKAGE     =   790487808.0000        STREAM LEAKAGE     =          10.0448
        UZF RECHARGE     =           0.0000          UZF RECHARGE     =           0.0000
               GW ET     =    17343536.0000                 GW ET     =           0.0000
     SURFACE LEAKAGE     =           0.0000       SURFACE LEAKAGE     =           0.0000
           AG WELLS      =   822793920.0000             AG WELLS      =           7.1880

               TOTAL OUT =  2119698432.0000                 TOTAL OUT =          18.0350

                IN - OUT =        1280.0000                  IN - OUT =       1.5316E-03

     PERCENT DISCREPANCY =           0.00         PERCENT DISCREPANCY =           0.01






         TIME SUMMARY AT END OF TIME STEP   30 IN STRESS PERIOD   30
                    SECONDS     MINUTES      HOURS       DAYS        YEARS
                    -----------------------------------------------------------
   TIME STEP LENGTH  87667.      1461.1      24.352      1.0147     2.77799E-03
 STRESS PERIOD TIME 2.63000E+06  43833.      730.56      30.440     8.33397E-02
         TOTAL TIME 7.63565E+07 1.27261E+06  21210.      883.76      2.4196    
1
1
                            STRESS PERIOD NO.   31, LENGTH =   2630000.    
                            -----------------------------------------------

                              NUMBER OF TIME STEPS =    30

                               MULTIPLIER FOR DELT =     1.000

                            INITIAL TIME STEP SIZE =   87666.66    

 REUSING NON-PARAMETER GHB CELLS FROM LAST STRESS PERIOD

      2 GHB CELLS

 REUSING STREAM SEGMENT DATA FROM LAST STRESS PERIOD



            AREAL INFILTRATION RATE
 READING ON UNIT   19 WITH FORMAT: (10F4.0)            

            1           2           3           4           5           6           7           8           9          10
 ........................................................................................................................
   1   1.2000E-09   0.000       0.000       0.000       0.000       0.000       0.000       0.000       0.000       0.000    
   2   2.1000E-09  2.0000E-09  8.0000E-10  8.5000E-09   0.000       0.000       0.000       0.000       0.000       0.000    
   3   5.0000E-10  1.1000E-09  8.8000E-09  5.5000E-09   0.000       0.000       0.000       0.000       0.000       0.000    
   4   8.5000E-09  1.1000E-09  1.1000E-09  1.1000E-09  2.0000E-09   0.000       0.000       0.000       0.000       0.000    
   5   8.5000E-09  1.1000E-09  1.1000E-09  1.1000E-09  1.1000E-09   0.000       0.000       0.000       0.000       0.000    
   6   8.5000E-09  5.2000E-09  2.1000E-09  1.1000E-09  1.5000E-09   0.000       0.000       0.000       0.000       0.000    
   7   8.5000E-09  5.2000E-09  2.1000E-09  1.2000E-09  2.0000E-09   0.000       0.000       0.000       0.000       0.000    
   8   5.0000E-10  5.2000E-09  2.1000E-09  1.2000E-09  5.0000E-09   0.000       0.000       0.000       0.000       0.000    
   9   5.0000E-10  5.2000E-09  2.1000E-09  1.2000E-09  5.0000E-09   0.000       0.000       0.000       0.000       0.000    
  10   5.0000E-10  5.2000E-09  2.1000E-09  1.2000E-09  5.8000E-09   0.000       0.000       0.000       0.000       0.000    
  11   1.0000E-10  1.1000E-09  1.1000E-09  1.2000E-09  5.0000E-09   0.000       0.000       0.000       0.000       0.000    
  12   1.1000E-09  1.1000E-09  1.1000E-09  1.1000E-09  2.0000E-09   0.000       0.000       0.000       0.000       0.000    
  13   1.1000E-09  2.2000E-09  2.2000E-09  2.1000E-09  1.0000E-09   0.000       0.000       0.000       0.000       0.000    
  14   2.0000E-10  5.5000E-09  5.5000E-09  5.2000E-09  1.0000E-09   0.000       0.000       0.000       0.000       0.000    
  15    0.000      8.8000E-09  8.8000E-09   0.000       0.000       0.000       0.000       0.000       0.000       0.000    

                  ET RATE =  1.500000E-07

 USING ET EXTINCTION DEPTH FROM PREVIOUS STRESS PERIOD. CURRENT PERIOD IS:      31

 USING EXTINCTION WATER CONTENT FROM PREVIOUS STRESS PERIOD. CURRENT PERIOD IS:      31

 USING AIR ENTRY PRESSURE FROM PREVIOUS STRESS PERIOD. CURRENT PERIOD IS:      31

 USING ROOT PRESSURE HEAD FROM PREVIOUS STRESS PERIOD. CURRENT PERIOD IS:      31

 USING ROOT ACTIVITY FROM PREVIOUS STRESS PERIOD. CURRENT PERIOD IS:      31

 PROCESSING AG STRESS PERIOD DATA

 READING AG STRESS PERIOD DATA

 READING IRRIGATION WELL

 END PROCESSING AG STRESS PERIOD DATA OPTIONS
 
 SOLVING FOR HEAD 
                                                   Max.-Head-Change                         Max.-Flux-Residual
  Residual-Control   Outer-Iter.   Inner-Iter.     Column Row Layer    Maximum-Head-Change  Column Row Layer    Maximum-Flux-Residual          L2-NORM 
          0                 1           2             4    7     1      -0.5641822535E-01       4    7    1        -0.2949455924E+01      0.7019786183E+01
          0                 2           2             4    7     1       0.5487925478E-02       4    7    1         0.2949437749E+00      0.7019710983E+00
          0                 3           2             4    7     1      -0.3737119456E-03       4    7    1        -0.2064632654E-01      0.4913863281E-01
          0                 4           1             4    7     1       0.1486614267E-04       4    7    1         0.8441974423E-03      0.2009193554E-02

    ------------------------------------------------
       NWT REQUIRED            4 OUTER ITERATIONS 
       AND A TOTAL OF          7 INNER ITERATIONS.
    ------------------------------------------------

 NO OUTPUT CONTROL FOR STRESS PERIOD   31   TIME STEP    1
 
 SOLVING FOR HEAD 
                                                   Max.-Head-Change                         Max.-Flux-Residual
  Residual-Control   Outer-Iter.   Inner-Iter.     Column Row Layer    Maximum-Head-Change  Column Row Layer    Maximum-Flux-Residual          L2-NORM 
          0                 1           2             4    7     1      -0.5571599862E-01       4    7    1        -0.2913975927E+01      0.6838458713E+01
          0                 2           2             4    7     1       0.5419615742E-02       4    7    1         0.2913956205E+00      0.6838387378E+00
          0                 3           2             4    7     1      -0.3690603277E-03       4    7    1        -0.2039795708E-01      0.4786936129E-01
          0                 4           1             4    7     1       0.1468105053E-04       4    7    1         0.8340391209E-03      0.1957277748E-02

    ------------------------------------------------
       NWT REQUIRED            4 OUTER ITERATIONS 
       AND A TOTAL OF          7 INNER ITERATIONS.
    ------------------------------------------------

 NO OUTPUT CONTROL FOR STRESS PERIOD   31   TIME STEP    2
 
 SOLVING FOR HEAD 
                                                   Max.-Head-Change                         Max.-Flux-Residual
  Residual-Control   Outer-Iter.   Inner-Iter.     Column Row Layer    Maximum-Head-Change  Column Row Layer    Maximum-Flux-Residual          L2-NORM 
          0                 1           2             4    7     1      -0.5534408170E-01       4    7    1        -0.2895578912E+01      0.6725321062E+01
          0                 2           2             4    7     1       0.5383436281E-02       4    7    1         0.2895557735E+00      0.6725251884E+00
          0                 3           2             4    7     1      -0.3665966607E-03       4    7    1        -0.2026916911E-01      0.4707741276E-01
          0                 4           1             4    7     1       0.1458301880E-04       4    7    1         0.8287716678E-03      0.1924886033E-02

    ------------------------------------------------
       NWT REQUIRED            4 OUTER ITERATIONS 
       AND A TOTAL OF          7 INNER ITERATIONS.
    ------------------------------------------------

 NO OUTPUT CONTROL FOR STRESS PERIOD   31   TIME STEP    3
 
 SOLVING FOR HEAD 
                                                   Max.-Head-Change                         Max.-Flux-Residual
  Residual-Control   Outer-Iter.   Inner-Iter.     Column Row Layer    Maximum-Head-Change  Column Row Layer    Maximum-Flux-Residual          L2-NORM 
          0                 1           2             4    7     1      -0.5495537391E-01       4    7    1        -0.2876217259E+01      0.6617202420E+01
          0                 2           2             4    7     1       0.5345623777E-02       4    7    1         0.2876194798E+00      0.6617135272E+00
          0                 3           2             4    7     1      -0.3640217874E-03       4    7    1        -0.2013362971E-01      0.4632059015E-01
          0                 4           1             4    7     1       0.1448056192E-04       4    7    1         0.8232280968E-03      0.1893933439E-02

    ------------------------------------------------
       NWT REQUIRED            4 OUTER ITERATIONS 
       AND A TOTAL OF          7 INNER ITERATIONS.
    ------------------------------------------------

 NO OUTPUT CONTROL FOR STRESS PERIOD   31   TIME STEP    4
 
 SOLVING FOR HEAD 
                                                   Max.-Head-Change                         Max.-Flux-Residual
  Residual-Control   Outer-Iter.   Inner-Iter.     Column Row Layer    Maximum-Head-Change  Column Row Layer    Maximum-Flux-Residual          L2-NORM 
          0                 1           2             4    7     1      -0.5455176155E-01       4    7    1        -0.2855994735E+01      0.6513789765E+01
          0                 2           2             4    7     1       0.5306361695E-02       4    7    1         0.2855971148E+00      0.6513724604E+00
          0                 3           2             4    7     1      -0.3613482008E-03       4    7    1        -0.1999206514E-01      0.4559671288E-01
          0                 4           1             4    7     1       0.1437417791E-04       4    7    1         0.8174381055E-03      0.1864328014E-02

    ------------------------------------------------
       NWT REQUIRED            4 OUTER ITERATIONS 
       AND A TOTAL OF          7 INNER ITERATIONS.
    ------------------------------------------------

 NO OUTPUT CONTROL FOR STRESS PERIOD   31   TIME STEP    5
 
 SOLVING FOR HEAD 
                                                   Max.-Head-Change                         Max.-Flux-Residual
  Residual-Control   Outer-Iter.   Inner-Iter.     Column Row Layer    Maximum-Head-Change  Column Row Layer    Maximum-Flux-Residual          L2-NORM 
          0                 1           2             4    7     1      -0.5413460741E-01       4    7    1        -0.2834986893E+01      0.6414768640E+01
          0                 2           2             4    7     1       0.5265782583E-02       4    7    1         0.2834962325E+00      0.6414705383E+00
          0                 3           2             4    7     1      -0.3585849271E-03       4    7    1        -0.1984500426E-01      0.4490357702E-01
          0                 4           1             4    7     1       0.1426422403E-04       4    7    1         0.8114232908E-03      0.1835979157E-02

    ------------------------------------------------
       NWT REQUIRED            4 OUTER ITERATIONS 
       AND A TOTAL OF          7 INNER ITERATIONS.
    ------------------------------------------------

 NO OUTPUT CONTROL FOR STRESS PERIOD   31   TIME STEP    6
 
 SOLVING FOR HEAD 
                                                   Max.-Head-Change                         Max.-Flux-Residual
  Residual-Control   Outer-Iter.   Inner-Iter.     Column Row Layer    Maximum-Head-Change  Column Row Layer    Maximum-Flux-Residual          L2-NORM 
          0                 1           2             4    7     1      -0.5370559446E-01       4    7    1        -0.2813286644E+01      0.6319863194E+01
          0                 2           2             4    7     1       0.5224050127E-02       4    7    1         0.2813261232E+00      0.6319801783E+00
          0                 3           2             4    7     1      -0.3557431132E-03       4    7    1        -0.1969309733E-01      0.4423925045E-01
          0                 4           1             4    7     1       0.1415114570E-04       4    7    1         0.8052102849E-03      0.1808809709E-02

    ------------------------------------------------
       NWT REQUIRED            4 OUTER ITERATIONS 
       AND A TOTAL OF          7 INNER ITERATIONS.
    ------------------------------------------------

 NO OUTPUT CONTROL FOR STRESS PERIOD   31   TIME STEP    7
 
 SOLVING FOR HEAD 
                                                   Max.-Head-Change                         Max.-Flux-Residual
  Residual-Control   Outer-Iter.   Inner-Iter.     Column Row Layer    Maximum-Head-Change  Column Row Layer    Maximum-Flux-Residual          L2-NORM 
          0                 1           2             4    7     1      -0.5326615531E-01       4    7    1        -0.2790973199E+01      0.6228823168E+01
          0                 2           2             4    7     1       0.5181303668E-02       4    7    1         0.2790947064E+00      0.6228763478E+00
          0                 3           2             4    7     1      -0.3528322479E-03       4    7    1        -0.1953689878E-01      0.4360197751E-01
          0                 4           1             4    7     1       0.1403531962E-04       4    7    1         0.7988217499E-03      0.1782746177E-02

    ------------------------------------------------
       NWT REQUIRED            4 OUTER ITERATIONS 
       AND A TOTAL OF          7 INNER ITERATIONS.
    ------------------------------------------------

 NO OUTPUT CONTROL FOR STRESS PERIOD   31   TIME STEP    8
 
 SOLVING FOR HEAD 
                                                   Max.-Head-Change                         Max.-Flux-Residual
  Residual-Control   Outer-Iter.   Inner-Iter.     Column Row Layer    Maximum-Head-Change  Column Row Layer    Maximum-Flux-Residual          L2-NORM 
          0                 1           2             4    7     1      -0.5281762419E-01       4    7    1        -0.2768120837E+01      0.6141393655E+01
          0                 2           2             4    7     1       0.5137672972E-02       4    7    1         0.2768094093E+00      0.6141335570E+00
          0                 3           2             4    7     1      -0.3498611675E-03       4    7    1        -0.1937692849E-01      0.4298999583E-01
          0                 4           1             4    7     1       0.1391709774E-04       4    7    1         0.7922789619E-03      0.1757719564E-02

    ------------------------------------------------
       NWT REQUIRED            4 OUTER ITERATIONS 
       AND A TOTAL OF          7 INNER ITERATIONS.
    ------------------------------------------------

 NO OUTPUT CONTROL FOR STRESS PERIOD   31   TIME STEP    9
 
 SOLVING FOR HEAD 
                                                   Max.-Head-Change                         Max.-Flux-Residual
  Residual-Control   Outer-Iter.   Inner-Iter.     Column Row Layer    Maximum-Head-Change  Column Row Layer    Maximum-Flux-Residual          L2-NORM 
          0                 1           2             4    7     1      -0.5236098557E-01       4    7    1        -0.2744784071E+01      0.6057365841E+01
          0                 2           2             4    7     1       0.5093254582E-02       4    7    1         0.2744756823E+00      0.6058151390E+00
          0                 3           2             4    7     1      -0.3468364399E-03       4    7    1        -0.1921356802E-01      0.4240766750E-01
          0                 4           1             4    7     1       0.1379674070E-04       4    7    1         0.7855974966E-03      0.1733900598E-02

    ------------------------------------------------
       NWT REQUIRED            4 OUTER ITERATIONS 
       AND A TOTAL OF          7 INNER ITERATIONS.
    ------------------------------------------------

 NO OUTPUT CONTROL FOR STRESS PERIOD   31   TIME STEP   10
 
 SOLVING FOR HEAD 
                                                   Max.-Head-Change                         Max.-Flux-Residual
  Residual-Control   Outer-Iter.   Inner-Iter.     Column Row Layer    Maximum-Head-Change  Column Row Layer    Maximum-Flux-Residual          L2-NORM 
          0                 1           2             4    7     1      -0.5189766418E-01       4    7    1        -0.2721043001E+01      0.5976513885E+01
          0                 2           2             4    7     1       0.5048185352E-02       4    7    1         0.2721015343E+00      0.5976477806E+00
          0                 3           2             4    7     1      -0.3437673982E-03       4    7    1        -0.1904737796E-01      0.4183595634E-01
          0                 4           1             4    7     1       0.1367462082E-04       4    7    1         0.7788003240E-03      0.1710523283E-02

    ------------------------------------------------
       NWT REQUIRED            4 OUTER ITERATIONS 
       AND A TOTAL OF          7 INNER ITERATIONS.
    ------------------------------------------------

 NO OUTPUT CONTROL FOR STRESS PERIOD   31   TIME STEP   11
 
 SOLVING FOR HEAD 
                                                   Max.-Head-Change                         Max.-Flux-Residual
  Residual-Control   Outer-Iter.   Inner-Iter.     Column Row Layer    Maximum-Head-Change  Column Row Layer    Maximum-Flux-Residual          L2-NORM 
          0                 1           2             4    7     1      -0.5142859408E-01       4    7    1        -0.2696949352E+01      0.5898137004E+01
          0                 2           2             4    7     1       0.5002557153E-02       4    7    1         0.2696921370E+00      0.5898101082E+00
          0                 3           2             4    7     1      -0.3406602913E-03       4    7    1        -0.1887872038E-01      0.4128731081E-01
          0                 4           1             4    7     1       0.1355098575E-04       4    7    1         0.7719021976E-03      0.1688078741E-02

    ------------------------------------------------
       NWT REQUIRED            4 OUTER ITERATIONS 
       AND A TOTAL OF          7 INNER ITERATIONS.
    ------------------------------------------------

 NO OUTPUT CONTROL FOR STRESS PERIOD   31   TIME STEP   12
 
 SOLVING FOR HEAD 
                                                   Max.-Head-Change                         Max.-Flux-Residual
  Residual-Control   Outer-Iter.   Inner-Iter.     Column Row Layer    Maximum-Head-Change  Column Row Layer    Maximum-Flux-Residual          L2-NORM 
          0                 1           2             4    7     1      -0.5095476675E-01       4    7    1        -0.2672558595E+01      0.5822649132E+01
          0                 2           2             4    7     1       0.4956466321E-02       4    7    1         0.2672530367E+00      0.5822613424E+00
          0                 3           2             4    7     1      -0.3375216803E-03       4    7    1        -0.1870798353E-01      0.4075890169E-01
          0                 4           1             4    7     1       0.1342609775E-04       4    7    1         0.7649190647E-03      0.1666502799E-02

    ------------------------------------------------
       NWT REQUIRED            4 OUTER ITERATIONS 
       AND A TOTAL OF          7 INNER ITERATIONS.
    ------------------------------------------------

 NO OUTPUT CONTROL FOR STRESS PERIOD   31   TIME STEP   13
 
 SOLVING FOR HEAD 
                                                   Max.-Head-Change                         Max.-Flux-Residual
  Residual-Control   Outer-Iter.   Inner-Iter.     Column Row Layer    Maximum-Head-Change  Column Row Layer    Maximum-Flux-Residual          L2-NORM 
          0                 1           2             4    7     1      -0.5047712907E-01       4    7    1        -0.2647922858E+01      0.5749889227E+01
          0                 2           2             4    7     1       0.4910004952E-02       4    7    1         0.2647894457E+00      0.5749853795E+00
          0                 3           2             4    7     1      -0.3343578358E-03       4    7    1        -0.1853553224E-01      0.4024957443E-01
          0                 4           1             4    7     1       0.1330020572E-04       4    7    1         0.7578657933E-03      0.1645646981E-02

    ------------------------------------------------
       NWT REQUIRED            4 OUTER ITERATIONS 
       AND A TOTAL OF          7 INNER ITERATIONS.
    ------------------------------------------------

 NO OUTPUT CONTROL FOR STRESS PERIOD   31   TIME STEP   14
 
 SOLVING FOR HEAD 
                                                   Max.-Head-Change                         Max.-Flux-Residual
  Residual-Control   Outer-Iter.   Inner-Iter.     Column Row Layer    Maximum-Head-Change  Column Row Layer    Maximum-Flux-Residual          L2-NORM 
          0                 1           2             4    7     1      -0.4999652133E-01       4    7    1        -0.2623089808E+01      0.5679691138E+01
          0                 2           2             4    7     1       0.4863254772E-02       4    7    1         0.2623061297E+00      0.5679655995E+00
          0                 3           2             4    7     1      -0.3311743231E-03       4    7    1        -0.1836170015E-01      0.3975819365E-01
          0                 4           1             4    7     1       0.1317353036E-04       4    7    1         0.7507560406E-03      0.1625547443E-02

    ------------------------------------------------
       NWT REQUIRED            4 OUTER ITERATIONS 
       AND A TOTAL OF          7 INNER ITERATIONS.
    ------------------------------------------------

 NO OUTPUT CONTROL FOR STRESS PERIOD   31   TIME STEP   15
 
 SOLVING FOR HEAD 
                                                   Max.-Head-Change                         Max.-Flux-Residual
  Residual-Control   Outer-Iter.   Inner-Iter.     Column Row Layer    Maximum-Head-Change  Column Row Layer    Maximum-Flux-Residual          L2-NORM 
          0                 1           2             4    7     1      -0.4951375585E-01       4    7    1        -0.2598104203E+01      0.5611924716E+01
          0                 2           2             4    7     1       0.4816294791E-02       4    7    1         0.2598075643E+00      0.5611889931E+00
          0                 3           2             4    7     1      -0.3279765232E-03       4    7    1        -0.1818680054E-01      0.3928382836E-01
          0                 4           1             4    7     1       0.1304628730E-04       4    7    1         0.7436026467E-03      0.1606144686E-02

    ------------------------------------------------
       NWT REQUIRED            4 OUTER ITERATIONS 
       AND A TOTAL OF          7 INNER ITERATIONS.
    ------------------------------------------------

 NO OUTPUT CONTROL FOR STRESS PERIOD   31   TIME STEP   16
 
 SOLVING FOR HEAD 
                                                   Max.-Head-Change                         Max.-Flux-Residual
  Residual-Control   Outer-Iter.   Inner-Iter.     Column Row Layer    Maximum-Head-Change  Column Row Layer    Maximum-Flux-Residual          L2-NORM 
          0                 1           2             4    7     1      -0.4902943479E-01       4    7    1        -0.2573000121E+01      0.5546446007E+01
          0                 2           2             4    7     1       0.4769183574E-02       4    7    1         0.2572971564E+00      0.5546411622E+00
          0                 3           2             4    7     1      -0.3247684239E-03       4    7    1        -0.1801107191E-01      0.3882547656E-01
          0                 4           1             4    7     1       0.1291863371E-04       4    7    1         0.7364153334E-03      0.1587421859E-02

    ------------------------------------------------
       NWT REQUIRED            4 OUTER ITERATIONS 
       AND A TOTAL OF          7 INNER ITERATIONS.
    ------------------------------------------------

 NO OUTPUT CONTROL FOR STRESS PERIOD   31   TIME STEP   17
 
 SOLVING FOR HEAD 
                                                   Max.-Head-Change                         Max.-Flux-Residual
  Residual-Control   Outer-Iter.   Inner-Iter.     Column Row Layer    Maximum-Head-Change  Column Row Layer    Maximum-Flux-Residual          L2-NORM 
          0                 1           2             4    7     1      -0.4854438353E-01       4    7    1        -0.2547823677E+01      0.5483144762E+01
          0                 2           2             4    7     1       0.4722001399E-02       4    7    1         0.2547795173E+00      0.5483110773E+00
          0                 3           2             4    7     1      -0.3215554917E-03       4    7    1        -0.1783483705E-01      0.3838237020E-01
          0                 4           1             4    7     1       0.1279078807E-04       4    7    1         0.7292073142E-03      0.1569277008E-02

    ------------------------------------------------
       NWT REQUIRED            4 OUTER ITERATIONS 
       AND A TOTAL OF          7 INNER ITERATIONS.
    ------------------------------------------------

 NO OUTPUT CONTROL FOR STRESS PERIOD   31   TIME STEP   18
 
 SOLVING FOR HEAD 
                                                   Max.-Head-Change                         Max.-Flux-Residual
  Residual-Control   Outer-Iter.   Inner-Iter.     Column Row Layer    Maximum-Head-Change  Column Row Layer    Maximum-Flux-Residual          L2-NORM 
          0                 1           2             4    7     1      -0.4805922184E-01       4    7    1        -0.2522609624E+01      0.5421900740E+01
          0                 2           2             4    7     1       0.4674808546E-02       4    7    1         0.2522581215E+00      0.5421867148E+00
          0                 3           2             4    7     1      -0.3183418322E-03       4    7    1        -0.1765833919E-01      0.3795365981E-01
          0                 4           1             4    7     1       0.1266291366E-04       4    7    1         0.7219885483E-03      0.1551747089E-02

    ------------------------------------------------
       NWT REQUIRED            4 OUTER ITERATIONS 
       AND A TOTAL OF          7 INNER ITERATIONS.
    ------------------------------------------------

 NO OUTPUT CONTROL FOR STRESS PERIOD   31   TIME STEP   19
 
 SOLVING FOR HEAD 
                                                   Max.-Head-Change                         Max.-Flux-Residual
  Residual-Control   Outer-Iter.   Inner-Iter.     Column Row Layer    Maximum-Head-Change  Column Row Layer    Maximum-Flux-Residual          L2-NORM 
          0                 1           2             4    7     1      -0.4757453765E-01       4    7    1        -0.2497390811E+01      0.5362615905E+01
          0                 2           2             4    7     1       0.4627662199E-02       4    7    1         0.2497362537E+00      0.5362582764E+00
          0                 3           2             4    7     1      -0.3151313388E-03       4    7    1        -0.1748180824E-01      0.3753867012E-01
          0                 4           1             4    7     1       0.1253516508E-04       4    7    1         0.7147684239E-03      0.1534773071E-02

    ------------------------------------------------
       NWT REQUIRED            4 OUTER ITERATIONS 
       AND A TOTAL OF          7 INNER ITERATIONS.
    ------------------------------------------------

 NO OUTPUT CONTROL FOR STRESS PERIOD   31   TIME STEP   20
 
 SOLVING FOR HEAD 
                                                   Max.-Head-Change                         Max.-Flux-Residual
  Residual-Control   Outer-Iter.   Inner-Iter.     Column Row Layer    Maximum-Head-Change  Column Row Layer    Maximum-Flux-Residual          L2-NORM 
          0                 1           2             4    7     1      -0.4709086287E-01       4    7    1        -0.2472197485E+01      0.5305187753E+01
          0                 2           2             4    7     1       0.4580614089E-02       4    7    1         0.2472169381E+00      0.5305155060E+00
          0                 3           2             4    7     1      -0.3119275345E-03       4    7    1        -0.1730545591E-01      0.3713667178E-01
          0                 4           1             4    7     1       0.1240768279E-04       4    7    1         0.7075556077E-03      0.1518335135E-02

    ------------------------------------------------
       NWT REQUIRED            4 OUTER ITERATIONS 
       AND A TOTAL OF          7 INNER ITERATIONS.
    ------------------------------------------------

 NO OUTPUT CONTROL FOR STRESS PERIOD   31   TIME STEP   21
 
 SOLVING FOR HEAD 
                                                   Max.-Head-Change                         Max.-Flux-Residual
  Residual-Control   Outer-Iter.   Inner-Iter.     Column Row Layer    Maximum-Head-Change  Column Row Layer    Maximum-Flux-Residual          L2-NORM 
          0                 1           2             4    7     1      -0.4660855119E-01       4    7    1        -0.2447049662E+01      0.5249524026E+01
          0                 2           2             4    7     1       0.4533698620E-02       4    7    1         0.2447021758E+00      0.5249491806E+00
          0                 3           2             4    7     1      -0.3087327617E-03       4    7    1        -0.1712942227E-01      0.3674702684E-01
          0                 4           1             4    7     1       0.1228055993E-04       4    7    1         0.7003558287E-03      0.1502398377E-02

    ------------------------------------------------
       NWT REQUIRED            4 OUTER ITERATIONS 
       AND A TOTAL OF          7 INNER ITERATIONS.
    ------------------------------------------------

 NO OUTPUT CONTROL FOR STRESS PERIOD   31   TIME STEP   22
 
 SOLVING FOR HEAD 
                                                   Max.-Head-Change                         Max.-Flux-Residual
  Residual-Control   Outer-Iter.   Inner-Iter.     Column Row Layer    Maximum-Head-Change  Column Row Layer    Maximum-Flux-Residual          L2-NORM 
          0                 1           2             4    7     1      -0.4612832085E-01       4    7    1        -0.2421987652E+01      0.5195546360E+01
          0                 2           2             4    7     1       0.4486985647E-02       4    7    1         0.2421959977E+00      0.5195514523E+00
          0                 3           2             4    7     1      -0.3055517778E-03       4    7    1        -0.1695398950E-01      0.3636918082E-01
          0                 4           1             4    7     1       0.1215398566E-04       4    7    1         0.6931806133E-03      0.1486945921E-02

    ------------------------------------------------
       NWT REQUIRED            4 OUTER ITERATIONS 
       AND A TOTAL OF          7 INNER ITERATIONS.
    ------------------------------------------------

 NO OUTPUT CONTROL FOR STRESS PERIOD   31   TIME STEP   23
 
 SOLVING FOR HEAD 
                                                   Max.-Head-Change                         Max.-Flux-Residual
  Residual-Control   Outer-Iter.   Inner-Iter.     Column Row Layer    Maximum-Head-Change  Column Row Layer    Maximum-Flux-Residual          L2-NORM 
          0                 1           2             4    7     1      -0.4565031110E-01       4    7    1        -0.2397019641E+01      0.5143175653E+01
          0                 2           2             4    7     1       0.4440488714E-02       4    7    1         0.2396992219E+00      0.5143144372E+00
          0                 3           2             4    7     1      -0.3023855055E-03       4    7    1        -0.1677921489E-01      0.3600259280E-01
          0                 4           1             4    7     1       0.1202799623E-04       4    7    1         0.6860323149E-03      0.1471953018E-02

    ------------------------------------------------
       NWT REQUIRED            4 OUTER ITERATIONS 
       AND A TOTAL OF          7 INNER ITERATIONS.
    ------------------------------------------------

 NO OUTPUT CONTROL FOR STRESS PERIOD   31   TIME STEP   24
 
 SOLVING FOR HEAD 
                                                   Max.-Head-Change                         Max.-Flux-Residual
  Residual-Control   Outer-Iter.   Inner-Iter.     Column Row Layer    Maximum-Head-Change  Column Row Layer    Maximum-Flux-Residual          L2-NORM 
          0                 1           2             4    7     1      -0.4517489196E-01       4    7    1        -0.2372166781E+01      0.5092331400E+01
          0                 2           2             4    7     1       0.4394243808E-02       4    7    1         0.2372139633E+00      0.5092300587E+00
          0                 3           2             4    7     1      -0.2992363949E-03       4    7    1        -0.1660524645E-01      0.3564668212E-01
          0                 4           1             4    7     1       0.1190269054E-04       4    7    1         0.6789170018E-03      0.1457398934E-02

    ------------------------------------------------
       NWT REQUIRED            4 OUTER ITERATIONS 
       AND A TOTAL OF          7 INNER ITERATIONS.
    ------------------------------------------------

 NO OUTPUT CONTROL FOR STRESS PERIOD   31   TIME STEP   25
 
 SOLVING FOR HEAD 
                                                   Max.-Head-Change                         Max.-Flux-Residual
  Residual-Control   Outer-Iter.   Inner-Iter.     Column Row Layer    Maximum-Head-Change  Column Row Layer    Maximum-Flux-Residual          L2-NORM 
          0                 1           2             4    7     1      -0.4470268197E-01       4    7    1        -0.2347463852E+01      0.5042950796E+01
          0                 2           2             4    7     1       0.4348311091E-02       4    7    1         0.2347436997E+00      0.5042920431E+00
          0                 3           2             4    7     1      -0.2961085426E-03       4    7    1        -0.1643232764E-01      0.3530101725E-01
          0                 4           1             4    7     1       0.1177823012E-04       4    7    1         0.6718446123E-03      0.1443262391E-02

    ------------------------------------------------
       NWT REQUIRED            4 OUTER ITERATIONS 
       AND A TOTAL OF          7 INNER ITERATIONS.
    ------------------------------------------------

 NO OUTPUT CONTROL FOR STRESS PERIOD   31   TIME STEP   26
 
 SOLVING FOR HEAD 
                                                   Max.-Head-Change                         Max.-Flux-Residual
  Residual-Control   Outer-Iter.   Inner-Iter.     Column Row Layer    Maximum-Head-Change  Column Row Layer    Maximum-Flux-Residual          L2-NORM 
          0                 1           2             4    7     1      -0.4423384080E-01       4    7    1        -0.2322920245E+01      0.4994969660E+01
          0                 2           2             4    7     1       0.4302706094E-02       4    7    1         0.2322893700E+00      0.4994939777E+00
          0                 3           2             4    7     1      -0.2930030072E-03       4    7    1        -0.1626052421E-01      0.3496515293E-01
          0                 4           1             4    7     1       0.1165465826E-04       4    7    1         0.6648178426E-03      0.1429531911E-02

    ------------------------------------------------
       NWT REQUIRED            4 OUTER ITERATIONS 
       AND A TOTAL OF          7 INNER ITERATIONS.
    ------------------------------------------------

 NO OUTPUT CONTROL FOR STRESS PERIOD   31   TIME STEP   27
 
 SOLVING FOR HEAD 
                                                   Max.-Head-Change                         Max.-Flux-Residual
  Residual-Control   Outer-Iter.   Inner-Iter.     Column Row Layer    Maximum-Head-Change  Column Row Layer    Maximum-Flux-Residual          L2-NORM 
          0                 1           2             4    7     1      -0.4376864346E-01       4    7    1        -0.2298551562E+01      0.4948328576E+01
          0                 2           2             4    7     1       0.4257455560E-02       4    7    1         0.2298525340E+00      0.4948299110E+00
          0                 3           2             4    7     1      -0.2899216088E-03       4    7    1        -0.1608994530E-01      0.3463866161E-01
          0                 4           1             4    7     1       0.1153204667E-04       4    7    1         0.6578411608E-03      0.1416176419E-02

    ------------------------------------------------
       NWT REQUIRED            4 OUTER ITERATIONS 
       AND A TOTAL OF          7 INNER ITERATIONS.
    ------------------------------------------------

 NO OUTPUT CONTROL FOR STRESS PERIOD   31   TIME STEP   28
 
 SOLVING FOR HEAD 
                                                   Max.-Head-Change                         Max.-Flux-Residual
  Residual-Control   Outer-Iter.   Inner-Iter.     Column Row Layer    Maximum-Head-Change  Column Row Layer    Maximum-Flux-Residual          L2-NORM 
          0                 1           2             4    7     1      -0.4330733151E-01       4    7    1        -0.2274372060E+01      0.4902961273E+01
          0                 2           2             4    7     1       0.4212582987E-02       4    7    1         0.2274346174E+00      0.4902932345E+00
          0                 3           2             4    7     1      -0.2868659482E-03       4    7    1        -0.1592069075E-01      0.3432109794E-01
          0                 4           1             4    7     1       0.1141045938E-04       4    7    1         0.6509186544E-03      0.1403192077E-02

    ------------------------------------------------
       NWT REQUIRED            4 OUTER ITERATIONS 
       AND A TOTAL OF          7 INNER ITERATIONS.
    ------------------------------------------------

 NO OUTPUT CONTROL FOR STRESS PERIOD   31   TIME STEP   29
 
 SOLVING FOR HEAD 
                                                   Max.-Head-Change                         Max.-Flux-Residual
  Residual-Control   Outer-Iter.   Inner-Iter.     Column Row Layer    Maximum-Head-Change  Column Row Layer    Maximum-Flux-Residual          L2-NORM 
          0                 1           2             4    7     1      -0.4285013825E-01       4    7    1        -0.2250394742E+01      0.4858835603E+01
          0                 2           2             4    7     1       0.4168111065E-02       4    7    1         0.2250369201E+00      0.4858807130E+00
          0                 3           2             4    7     1      -0.2838375698E-03       4    7    1        -0.1575285154E-01      0.3401221546E-01
          0                 4           1             4    7     1       0.1128995682E-04       4    7    1         0.6440539948E-03      0.1390557620E-02

    ------------------------------------------------
       NWT REQUIRED            4 OUTER ITERATIONS 
       AND A TOTAL OF          7 INNER ITERATIONS.
    ------------------------------------------------

 NO OUTPUT CONTROL FOR STRESS PERIOD   31   TIME STEP   30



 STREAM LISTING     PERIOD     31   STEP       30

 LAYER ROW COL. STREAM  RCH.  FLOW INTO     FLOW TO   FLOW OUT OF   OVRLND.     DIRECT     STREAM       STREAM     STREAM     STREAM   STREAMBED  STREAMBED
                SEG.NO.  NO.  STRM. RCH.    AQUIFER    STRM. RCH.    RUNOFF     PRECIP       ET          HEAD       DEPTH      WIDTH   CONDCTNC.   GRADIENT

   1    1    1     1     1    1.9000E+01  2.1427E-01   1.8786E+01  0.000E+00  0.000E+00  0.000E+00  1.09413E+03  1.082E+00  1.166E+01  5.249E-02  1.361E+00
   1    2    2     1     2    1.8786E+01  3.3054E-01   1.8455E+01  0.000E+00  0.000E+00  0.000E+00  1.08914E+03  1.077E+00  1.158E+01  8.107E-02  1.359E+00
   1    3    3     1     3    1.8455E+01  2.8064E-01   1.8175E+01  0.000E+00  0.000E+00  0.000E+00  1.08349E+03  1.072E+00  1.149E+01  6.892E-02  1.357E+00
   1    3    4     1     4    1.8175E+01  2.5740E-01   1.7917E+01  0.000E+00  0.000E+00  0.000E+00  1.07848E+03  1.068E+00  1.140E+01  6.328E-02  1.356E+00
   1    4    5     2     1    1.5917E+01  3.0542E-01   1.5612E+01  0.000E+00  0.000E+00  0.000E+00  1.07285E+03  9.157E-01  1.200E+01  7.800E-02  1.305E+00
   1    5    6     2     2    1.5612E+01  2.3438E-01   1.5377E+01  0.000E+00  0.000E+00  0.000E+00  1.06742E+03  9.063E-01  1.200E+01  6.000E-02  1.302E+00
   1    6    6     2     3    1.5377E+01  2.3388E-01   1.5143E+01  0.000E+00  0.000E+00  0.000E+00  1.06269E+03  8.980E-01  1.200E+01  6.000E-02  1.299E+00
   1    7    6     2     4    1.5143E+01  2.3338E-01   1.4910E+01  0.000E+00  0.000E+00  0.000E+00  1.05797E+03  8.897E-01  1.200E+01  6.000E-02  1.297E+00
   1    8    6     2     5    1.4910E+01  2.3289E-01   1.4677E+01  0.000E+00  0.000E+00  0.000E+00  1.05324E+03  8.814E-01  1.200E+01  6.000E-02  1.294E+00
   1    3    5     3     1    2.0000E+00  2.8252E-01   1.7175E+00  0.000E+00  0.000E+00  0.000E+00  1.07555E+03  1.909E+00  9.636E+00  7.227E-02  1.955E+00
   1    3    6     3     2    1.7175E+00  2.4905E-01   1.4684E+00  0.000E+00  0.000E+00  0.000E+00  1.07264E+03  1.727E+00  8.909E+00  6.682E-02  1.864E+00
   1    3    7     3     3    1.4684E+00  1.9718E-01   1.2712E+00  0.000E+00  0.000E+00  0.000E+00  1.06987E+03  1.555E+00  8.218E+00  5.547E-02  1.777E+00
   1    4    8     3     4    1.2712E+00  2.2567E-01   1.0456E+00  0.000E+00  0.000E+00  0.000E+00  1.06682E+03  1.364E+00  7.455E+00  6.709E-02  1.682E+00
   1    5    8     3     5    1.0456E+00  1.5790E-01   8.8768E-01  0.000E+00  0.000E+00  0.000E+00  1.06362E+03  1.164E+00  6.655E+00  4.991E-02  1.582E+00
   1    6    8     3     6    8.8768E-01  5.5980E-02   8.3170E-01  0.000E+00  0.000E+00  0.000E+00  1.06158E+03  1.036E+00  6.145E+00  1.844E-02  1.518E+00
   1    5   10     4     1    1.0000E+01  9.0919E-02   9.9091E+00  0.000E+00  0.000E+00  0.000E+00  1.07836E+03  6.368E-01  1.000E+01  2.500E-02  1.212E+00
   1    5    9     4     2    9.9091E+00  1.8158E-01   9.7275E+00  0.000E+00  0.000E+00  0.000E+00  1.07154E+03  6.315E-01  1.000E+01  5.000E-02  1.211E+00
   1    6    8     4     3    9.7275E+00  1.2689E-01   9.6006E+00  0.000E+00  0.000E+00  0.000E+00  1.06381E+03  6.256E-01  1.000E+01  3.500E-02  1.209E+00
   1    6    8     5     1    1.0432E+01  2.2686E-01   1.0205E+01  0.000E+00  0.000E+00  0.000E+00  1.05868E+03  6.790E-01  1.542E+01  6.166E-02  1.226E+00
   1    7    7     5     2    1.0205E+01  2.7894E-01   9.9265E+00  0.000E+00  0.000E+00  0.000E+00  1.05417E+03  6.732E-01  1.519E+01  7.594E-02  1.224E+00
   1    8    7     5     3    9.9265E+00  1.9221E-01   9.7343E+00  0.000E+00  0.000E+00  0.000E+00  1.04992E+03  6.676E-01  1.497E+01  5.241E-02  1.223E+00
   1    8    6     5     4    9.7343E+00  1.3577E-01   9.5985E+00  0.000E+00  0.000E+00  0.000E+00  1.04691E+03  6.637E-01  1.482E+01  3.706E-02  1.221E+00
   1    9    6     6     1    2.4276E+01  2.5176E-01   2.4024E+01  0.000E+00  0.000E+00  0.000E+00  1.04392E+03  1.196E+00  1.200E+01  6.000E-02  1.399E+00
   1   10    7     6     2    2.4024E+01  2.5131E-01   2.3773E+01  0.000E+00  0.000E+00  0.000E+00  1.03937E+03  1.188E+00  1.200E+01  6.000E-02  1.396E+00
   1   11    7     6     3    2.3773E+01  2.5086E-01   2.3522E+01  0.000E+00  0.000E+00  0.000E+00  1.03482E+03  1.181E+00  1.200E+01  6.000E-02  1.394E+00
   1   12    7     6     4    2.3522E+01  2.5041E-01   2.3271E+01  0.000E+00  0.000E+00  0.000E+00  1.03026E+03  1.173E+00  1.200E+01  6.000E-02  1.391E+00
   1   13    7     6     5    2.3271E+01  6.1623E-03   2.3265E+01  0.000E+00  0.000E+00  0.000E+00  1.02708E+03  1.170E+00  1.200E+01  2.400E-02  8.559E-02
   1   14    9     7     1    1.5000E+02  1.3471E+00   1.4865E+02  0.000E+00  0.000E+00  0.000E+00  1.03987E+03  2.288E+00  5.529E+01  5.593E-01  8.029E-01
   1   13    8     7     2    1.4865E+02  1.9009E+00   1.4675E+02  0.000E+00  0.000E+00  0.000E+00  1.03478E+03  2.279E+00  5.526E+01  6.148E-01  1.031E+00
   1   13    7     7     3    1.4675E+02  1.6011E+00   1.4515E+02  0.000E+00  0.000E+00  0.000E+00  1.02969E+03  2.270E+00  5.521E+01  5.584E-01  9.557E-01
   1   13    6     8     1    1.6842E+02  1.0437E+00   1.6737E+02  0.000E+00  0.000E+00  0.000E+00  1.02481E+03  2.938E+00  4.261E+01  4.342E-01  8.013E-01
   1   13    5     8     2    1.6737E+02  2.9057E-01   1.6708E+02  0.000E+00  0.000E+00  0.000E+00  1.01856E+03  2.934E+00  4.254E+01  4.335E-01  2.234E-01
   1   13    4     8     3    1.6708E+02 -2.0511E+00   1.6913E+02  0.000E+00  0.000E+00  0.000E+00  1.01231E+03  2.940E+00  4.263E+01  4.344E+00 -1.574E-01
   1   13    3     8     4    1.6913E+02 -3.4614E+00   1.7259E+02  0.000E+00  0.000E+00  0.000E+00  1.00608E+03  2.958E+00  4.289E+01  4.370E+00 -2.640E-01
   1   13    2     8     5    1.7259E+02 -2.5331E+00   1.7513E+02  0.000E+00  0.000E+00  0.000E+00  9.99852E+02  2.977E+00  4.317E+01  4.399E+00 -1.919E-01
   1   13    1     8     6    1.7513E+02 -1.9722E+00   1.7710E+02  0.000E+00  0.000E+00  0.000E+00  9.94867E+02  2.992E+00  4.338E+01  2.652E+00 -2.479E-01





UNSATURATED ZONE PACKAGE VOLUMETRIC BUDGET FOR  TIME STEP    30 STRESS PERIOD   31
  ------------------------------------------------------------------------------



     CUMULATIVE VOLUMES      L**3       RATES FOR THIS TIME STEP      L**3/T
     ------------------                 ------------------------

           IN:                                      IN:
           ---                                      ---
        INFILTRATION =  1228774073.2285          INFILTRATION =          26.5547

          OUT:                                     OUT:
          ----                                     ----
              UZF ET =  1137997722.2791                UZF ET =          26.6075
        UZF RECHARGE =      880342.6653          UZF RECHARGE =           0.0015

            IN - OUT =    89896008.2842              IN - OUT =      -5.4355E-02

          STORAGE:                                 STORAGE:
          --------                                 --------
      STORAGE CHANGE =    89896946.2993        STORAGE CHANGE =      -5.4355E-02

 PERCENT DISCREPANCY IS DIFFERENCE BETWEEN IN-OUT MINUS CHANGE IN STORAGE
 DIVIDED BY THE AVERAGE OF IN AND OUT TIMES 100

 PERCENT DISCREPANCY =          -0.00     PERCENT DISCREPANCY =           0.00






1
  VOLUMETRIC BUDGET FOR AGRICULTURAL FIELDS AT TIME STEP   30, STRESS PERIOD  31
  ------------------------------------------------------------------------------

     CUMULATIVE VOLUMES      L**3       RATES FOR THIS TIME STEP      L**3/T
     ------------------                 ------------------------

           IN:                                      IN:
           ---                                      ---
               AG WELLS  =   880948736.0000                 AG WELLS  =          22.1472
      DIVERSION SEGMENTS =           0.0000        DIVERSION SEGMENTS =           0.0000
           GW IRRIGATION =           0.0000             GW IRRIGATION =           0.0000
           SW IRRIGATION =           0.0000             SW IRRIGATION =           0.0000
        SYSTEM LOSSES GW =           0.0000          SYSTEM LOSSES GW =           0.0000
        SYSTEM LOSSES SW =           0.0000          SYSTEM LOSSES SW =           0.0000

                TOTAL IN =   880948736.0000                  TOTAL IN =          22.1472

          OUT:                                     OUT:
          ----                                     ----
               AG WELLS  =           0.0000                 AG WELLS  =           0.0000
      DIVERSION SEGMENTS =           0.0000        DIVERSION SEGMENTS =           0.0000
           GW IRRIGATION =   880948736.0000             GW IRRIGATION =          22.1472
           SW IRRIGATION =           0.0000             SW IRRIGATION =           0.0000
        SYSTEM LOSSES GW =           0.0000          SYSTEM LOSSES GW =           0.0000
        SYSTEM LOSSES SW =           0.0000          SYSTEM LOSSES SW =           0.0000

               TOTAL OUT =   880948736.0000                 TOTAL OUT =          22.1472

                IN - OUT =           0.0000                  IN - OUT =           0.0000

     PERCENT DISCREPANCY =           0.00         PERCENT DISCREPANCY =           0.00



1
  VOLUMETRIC BUDGET FOR ENTIRE MODEL AT END OF TIME STEP   30, STRESS PERIOD  31
  ------------------------------------------------------------------------------

     CUMULATIVE VOLUMES      L**3       RATES FOR THIS TIME STEP      L**3/T
     ------------------                 ------------------------

           IN:                                      IN:
           ---                                      ---
             STORAGE     =  1211187456.0000               STORAGE     =          20.3254
       CONSTANT HEAD     =           0.0000         CONSTANT HEAD     =           0.0000
     HEAD DEP BOUNDS     =    22559356.0000       HEAD DEP BOUNDS     =           0.2865
      STREAM LEAKAGE     =   970772480.0000        STREAM LEAKAGE     =          11.9181
        UZF RECHARGE     =      880342.5625          UZF RECHARGE     =       1.5464E-03
               GW ET     =           0.0000                 GW ET     =           0.0000
     SURFACE LEAKAGE     =           0.0000       SURFACE LEAKAGE     =           0.0000
           AG WELLS      =           0.0000             AG WELLS      =           0.0000

                TOTAL IN =  2205399808.0000                  TOTAL IN =          32.5316

          OUT:                                     OUT:
          ----                                     ----
             STORAGE     =   467088064.0000               STORAGE     =       7.7506E-02
       CONSTANT HEAD     =           0.0000         CONSTANT HEAD     =           0.0000
     HEAD DEP BOUNDS     =    23151622.0000       HEAD DEP BOUNDS     =           0.2892
      STREAM LEAKAGE     =   816867008.0000        STREAM LEAKAGE     =          10.0178
        UZF RECHARGE     =           0.0000          UZF RECHARGE     =           0.0000
               GW ET     =    17343536.0000                 GW ET     =           0.0000
     SURFACE LEAKAGE     =           0.0000       SURFACE LEAKAGE     =           0.0000
           AG WELLS      =   880948736.0000             AG WELLS      =          22.1472

               TOTAL OUT =  2205399040.0000                 TOTAL OUT =          32.5317

                IN - OUT =         768.0000                  IN - OUT =      -6.8665E-05

     PERCENT DISCREPANCY =           0.00         PERCENT DISCREPANCY =          -0.00






         TIME SUMMARY AT END OF TIME STEP   30 IN STRESS PERIOD   31
                    SECONDS     MINUTES      HOURS       DAYS        YEARS
                    -----------------------------------------------------------
   TIME STEP LENGTH  87667.      1461.1      24.352      1.0147     2.77799E-03
 STRESS PERIOD TIME 2.63000E+06  43833.      730.56      30.440     8.33397E-02
         TOTAL TIME 7.89864E+07 1.31644E+06  21941.      914.20      2.5029    
1
1
                            STRESS PERIOD NO.   32, LENGTH =   2630000.    
                            -----------------------------------------------

                              NUMBER OF TIME STEPS =    30

                               MULTIPLIER FOR DELT =     1.000

                            INITIAL TIME STEP SIZE =   87666.66    

 REUSING NON-PARAMETER GHB CELLS FROM LAST STRESS PERIOD

      2 GHB CELLS

 REUSING STREAM SEGMENT DATA FROM LAST STRESS PERIOD



            AREAL INFILTRATION RATE
 READING ON UNIT   19 WITH FORMAT: (10F4.0)            

            1           2           3           4           5           6           7           8           9          10
 ........................................................................................................................
   1   1.2000E-09   0.000       0.000       0.000       0.000       0.000       0.000       0.000       0.000       0.000    
   2   2.1000E-09  2.0000E-09  8.0000E-10  8.5000E-09   0.000       0.000       0.000       0.000       0.000       0.000    
   3   5.0000E-10  1.1000E-09  8.8000E-09  5.5000E-09   0.000       0.000       0.000       0.000       0.000       0.000    
   4   8.5000E-09  1.1000E-09  1.1000E-09  1.1000E-09  2.0000E-09   0.000       0.000       0.000       0.000       0.000    
   5   8.5000E-09  1.1000E-09  1.1000E-09  1.1000E-09  1.1000E-09   0.000       0.000       0.000       0.000       0.000    
   6   8.5000E-09  5.2000E-09  2.1000E-09  1.1000E-09  1.5000E-09   0.000       0.000       0.000       0.000       0.000    
   7   8.5000E-09  5.2000E-09  2.1000E-09  1.2000E-09  2.0000E-09   0.000       0.000       0.000       0.000       0.000    
   8   5.0000E-10  5.2000E-09  2.1000E-09  1.2000E-09  5.0000E-09   0.000       0.000       0.000       0.000       0.000    
   9   5.0000E-10  5.2000E-09  2.1000E-09  1.2000E-09  5.0000E-09   0.000       0.000       0.000       0.000       0.000    
  10   5.0000E-10  5.2000E-09  2.1000E-09  1.2000E-09  5.8000E-09   0.000       0.000       0.000       0.000       0.000    
  11   1.0000E-10  1.1000E-09  1.1000E-09  1.2000E-09  5.0000E-09   0.000       0.000       0.000       0.000       0.000    
  12   1.1000E-09  1.1000E-09  1.1000E-09  1.1000E-09  2.0000E-09   0.000       0.000       0.000       0.000       0.000    
  13   1.1000E-09  2.2000E-09  2.2000E-09  2.1000E-09  1.0000E-09   0.000       0.000       0.000       0.000       0.000    
  14   2.0000E-10  5.5000E-09  5.5000E-09  5.2000E-09  1.0000E-09   0.000       0.000       0.000       0.000       0.000    
  15    0.000      8.8000E-09  8.8000E-09   0.000       0.000       0.000       0.000       0.000       0.000       0.000    

                  ET RATE =  4.000000E-07

 USING ET EXTINCTION DEPTH FROM PREVIOUS STRESS PERIOD. CURRENT PERIOD IS:      32

 USING EXTINCTION WATER CONTENT FROM PREVIOUS STRESS PERIOD. CURRENT PERIOD IS:      32

 USING AIR ENTRY PRESSURE FROM PREVIOUS STRESS PERIOD. CURRENT PERIOD IS:      32

 USING ROOT PRESSURE HEAD FROM PREVIOUS STRESS PERIOD. CURRENT PERIOD IS:      32

 USING ROOT ACTIVITY FROM PREVIOUS STRESS PERIOD. CURRENT PERIOD IS:      32

 PROCESSING AG STRESS PERIOD DATA

 READING AG STRESS PERIOD DATA

 READING IRRIGATION WELL

 END PROCESSING AG STRESS PERIOD DATA OPTIONS
 
 SOLVING FOR HEAD 
                                                   Max.-Head-Change                         Max.-Flux-Residual
  Residual-Control   Outer-Iter.   Inner-Iter.     Column Row Layer    Maximum-Head-Change  Column Row Layer    Maximum-Flux-Residual          L2-NORM 
          0                 1           2             4    7     1      -0.1621114583E+00       4    7    1        -0.8476631227E+01      0.1986177357E+02
          0                 2           2             4    7     1       0.1576877792E-01       4    7    1         0.8476467545E+00      0.1986150404E+01
          0                 3           2             4    7     1      -0.1073797727E-02       4    7    1        -0.5933545330E-01      0.1390308405E+00
          0                 4           1             4    7     1       0.4272740499E-04       4    7    1         0.2426822709E-02      0.5686368677E-02

    ------------------------------------------------
       NWT REQUIRED            4 OUTER ITERATIONS 
       AND A TOTAL OF          7 INNER ITERATIONS.
    ------------------------------------------------

 NO OUTPUT CONTROL FOR STRESS PERIOD   32   TIME STEP    1
 
 SOLVING FOR HEAD 
                                                   Max.-Head-Change                         Max.-Flux-Residual
  Residual-Control   Outer-Iter.   Inner-Iter.     Column Row Layer    Maximum-Head-Change  Column Row Layer    Maximum-Flux-Residual          L2-NORM 
          0                 1           2             4    7     1      -0.1610369236E+00       4    7    1        -0.8423617056E+01      0.1952304437E+02
          0                 2           2             4    7     1       0.1566423731E-01       4    7    1         0.8423441389E+00      0.1952277195E+01
          0                 3           2             4    7     1      -0.1066679072E-02       4    7    1        -0.5896428140E-01      0.1366597177E+00
          0                 4           1             4    7     1       0.4244414642E-04       4    7    1         0.2411641696E-02      0.5589389070E-02

    ------------------------------------------------
       NWT REQUIRED            4 OUTER ITERATIONS 
       AND A TOTAL OF          7 INNER ITERATIONS.
    ------------------------------------------------

 NO OUTPUT CONTROL FOR STRESS PERIOD   32   TIME STEP    2
 
 SOLVING FOR HEAD 
                                                   Max.-Head-Change                         Max.-Flux-Residual
  Residual-Control   Outer-Iter.   Inner-Iter.     Column Row Layer    Maximum-Head-Change  Column Row Layer    Maximum-Flux-Residual          L2-NORM 
          0                 1           2             4    7     1      -0.1599099039E+00       4    7    1        -0.8367282542E+01      0.1922789053E+02
          0                 2           2             4    7     1       0.1555459504E-01       4    7    1         0.8367097379E+00      0.1922761590E+01
          0                 3           2             4    7     1      -0.1059212977E-02       4    7    1        -0.5856988215E-01      0.1345936273E+00
          0                 4           1             4    7     1       0.4214706287E-04       4    7    1         0.2395510711E-02      0.5504885940E-02

    ------------------------------------------------
       NWT REQUIRED            4 OUTER ITERATIONS 
       AND A TOTAL OF          7 INNER ITERATIONS.
    ------------------------------------------------

 NO OUTPUT CONTROL FOR STRESS PERIOD   32   TIME STEP    3
 
 SOLVING FOR HEAD 
                                                   Max.-Head-Change                         Max.-Flux-Residual
  Residual-Control   Outer-Iter.   Inner-Iter.     Column Row Layer    Maximum-Head-Change  Column Row Layer    Maximum-Flux-Residual          L2-NORM 
          0                 1           2             4    7     1      -0.1587445118E+00       4    7    1        -0.8308725091E+01      0.1894609207E+02
          0                 2           2             4    7     1       0.1544122198E-01       4    7    1         0.8308531629E+00      0.1894581630E+01
          0                 3           2             4    7     1      -0.1051492811E-02       4    7    1        -0.5815992956E-01      0.1326210284E+00
          0                 4           1             4    7     1       0.4183986962E-04       4    7    1         0.2378743584E-02      0.5424206493E-02

    ------------------------------------------------
       NWT REQUIRED            4 OUTER ITERATIONS 
       AND A TOTAL OF          7 INNER ITERATIONS.
    ------------------------------------------------

 NO OUTPUT CONTROL FOR STRESS PERIOD   32   TIME STEP    4
 
 SOLVING FOR HEAD 
                                                   Max.-Head-Change                         Max.-Flux-Residual
  Residual-Control   Outer-Iter.   Inner-Iter.     Column Row Layer    Maximum-Head-Change  Column Row Layer    Maximum-Flux-Residual          L2-NORM 
          0                 1           2             4    7     1      -0.1575448110E+00       4    7    1        -0.8248168876E+01      0.1867668035E+02
          0                 2           2             4    7     1       0.1532451327E-01       4    7    1         0.8247968225E+00      0.1867640437E+01
          0                 3           2             4    7     1      -0.1043545483E-02       4    7    1        -0.5773599236E-01      0.1307351454E+00
          0                 4           1             4    7     1       0.4152363748E-04       4    7    1         0.2361404492E-02      0.5347073986E-02

    ------------------------------------------------
       NWT REQUIRED            4 OUTER ITERATIONS 
       AND A TOTAL OF          7 INNER ITERATIONS.
    ------------------------------------------------

 NO OUTPUT CONTROL FOR STRESS PERIOD   32   TIME STEP    5
 
 SOLVING FOR HEAD 
                                                   Max.-Head-Change                         Max.-Flux-Residual
  Residual-Control   Outer-Iter.   Inner-Iter.     Column Row Layer    Maximum-Head-Change  Column Row Layer    Maximum-Flux-Residual          L2-NORM 
          0                 1           2             4    7     1      -0.1563145312E+00       4    7    1        -0.8185820161E+01      0.1841878427E+02
          0                 2           2             4    7     1       0.1520483158E-01       4    7    1         0.8185613347E+00      0.1841850887E+01
          0                 3           2             4    7     1      -0.1035395692E-02       4    7    1        -0.5729951386E-01      0.1289298748E+00
          0                 4           1             4    7     1       0.4119934951E-04       4    7    1         0.2343552487E-02      0.5273238101E-02

    ------------------------------------------------
       NWT REQUIRED            4 OUTER ITERATIONS 
       AND A TOTAL OF          7 INNER ITERATIONS.
    ------------------------------------------------

 NO OUTPUT CONTROL FOR STRESS PERIOD   32   TIME STEP    6
 
 SOLVING FOR HEAD 
                                                   Max.-Head-Change                         Max.-Flux-Residual
  Residual-Control   Outer-Iter.   Inner-Iter.     Column Row Layer    Maximum-Head-Change  Column Row Layer    Maximum-Flux-Residual          L2-NORM 
          0                 1           2             4    7     1      -0.1550575493E+00       4    7    1        -0.8121893306E+01      0.1817162004E+02
          0                 2           2             4    7     1       0.1508255389E-01       4    7    1         0.8121681272E+00      0.1817134590E+01
          0                 3           2             4    7     1      -0.1027069109E-02       4    7    1        -0.5685199408E-01      0.1271997323E+00
          0                 4           1             4    7     1       0.4086802643E-04       4    7    1         0.2325248865E-02      0.5202475141E-02

    ------------------------------------------------
       NWT REQUIRED            4 OUTER ITERATIONS 
       AND A TOTAL OF          7 INNER ITERATIONS.
    ------------------------------------------------

 NO OUTPUT CONTROL FOR STRESS PERIOD   32   TIME STEP    7
 
 SOLVING FOR HEAD 
                                                   Max.-Head-Change                         Max.-Flux-Residual
  Residual-Control   Outer-Iter.   Inner-Iter.     Column Row Layer    Maximum-Head-Change  Column Row Layer    Maximum-Flux-Residual          L2-NORM 
          0                 1           2             4    7     1      -0.1537773673E+00       4    7    1        -0.8056582022E+01      0.1793448208E+02
          0                 2           2             4    7     1       0.1495802077E-01       4    7    1         0.8056365635E+00      0.1793420978E+01
          0                 3           2             4    7     1      -0.1018588927E-02       4    7    1        -0.5639478854E-01      0.1255397779E+00
          0                 4           1             4    7     1       0.4053059204E-04       4    7    1         0.2306549129E-02      0.5134583112E-02

    ------------------------------------------------
       NWT REQUIRED            4 OUTER ITERATIONS 
       AND A TOTAL OF          7 INNER ITERATIONS.
    ------------------------------------------------

 NO OUTPUT CONTROL FOR STRESS PERIOD   32   TIME STEP    8
 
 SOLVING FOR HEAD 
                                                   Max.-Head-Change                         Max.-Flux-Residual
  Residual-Control   Outer-Iter.   Inner-Iter.     Column Row Layer    Maximum-Head-Change  Column Row Layer    Maximum-Flux-Residual          L2-NORM 
          0                 1           2             4    7     1      -0.1524769898E+00       4    7    1        -0.7990053303E+01      0.1770669789E+02
          0                 2           2             4    7     1       0.1483152434E-01       4    7    1         0.7989833360E+00      0.1770642790E+01
          0                 3           2             4    7     1      -0.1009975040E-02       4    7    1        -0.5592906577E-01      0.1239453014E+00
          0                 4           1             4    7     1       0.4018783703E-04       4    7    1         0.2287501003E-02      0.5069369748E-02

    ------------------------------------------------
       NWT REQUIRED            4 OUTER ITERATIONS 
       AND A TOTAL OF          7 INNER ITERATIONS.
    ------------------------------------------------

 NO OUTPUT CONTROL FOR STRESS PERIOD   32   TIME STEP    9
 
 SOLVING FOR HEAD 
                                                   Max.-Head-Change                         Max.-Flux-Residual
  Residual-Control   Outer-Iter.   Inner-Iter.     Column Row Layer    Maximum-Head-Change  Column Row Layer    Maximum-Flux-Residual          L2-NORM 
          0                 1           2             4    7     1      -0.1511596347E+00       4    7    1        -0.7922485785E+01      0.1748767810E+02
          0                 2           2             4    7     1       0.1470337754E-01       4    7    1         0.7922263019E+00      0.1748741086E+01
          0                 3           2             4    7     1      -0.1001248758E-02       4    7    1        -0.5545607584E-01      0.1224121783E+00
          0                 4           1             4    7     1       0.3984061011E-04       4    7    1         0.2268155695E-02      0.5006663844E-02

    ------------------------------------------------
       NWT REQUIRED            4 OUTER ITERATIONS 
       AND A TOTAL OF          7 INNER ITERATIONS.
    ------------------------------------------------

 NO OUTPUT CONTROL FOR STRESS PERIOD   32   TIME STEP   10
 
 SOLVING FOR HEAD 
                                                   Max.-Head-Change                         Max.-Flux-Residual
  Residual-Control   Outer-Iter.   Inner-Iter.     Column Row Layer    Maximum-Head-Change  Column Row Layer    Maximum-Flux-Residual          L2-NORM 
          0                 1           2             4    7     1      -0.1498281183E+00       4    7    1        -0.7854036164E+01      0.1727687768E+02
          0                 2           2             4    7     1       0.1457385423E-01       4    7    1         0.7853811241E+00      0.1727661352E+01
          0                 3           2             4    7     1      -0.9924287299E-03       4    7    1        -0.5497691523E-01      0.1209365943E+00
          0                 4           1             4    7     1       0.3948965272E-04       4    7    1         0.2248557978E-02      0.4946312526E-02

    ------------------------------------------------
       NWT REQUIRED            4 OUTER ITERATIONS 
       AND A TOTAL OF          7 INNER ITERATIONS.
    ------------------------------------------------

 NO OUTPUT CONTROL FOR STRESS PERIOD   32   TIME STEP   11
 
 SOLVING FOR HEAD 
                                                   Max.-Head-Change                         Max.-Flux-Residual
  Residual-Control   Outer-Iter.   Inner-Iter.     Column Row Layer    Maximum-Head-Change  Column Row Layer    Maximum-Flux-Residual          L2-NORM 
          0                 1           2             4    7     1      -0.1484848465E+00       4    7    1        -0.7784838748E+01      0.1707378763E+02
          0                 2           2             4    7     1       0.1444318674E-01       4    7    1         0.7784612279E+00      0.1707310157E+01
          0                 3           2             4    7     1      -0.9835307798E-03       4    7    1        -0.5449252376E-01      0.1195120012E+00
          0                 4           1             4    7     1       0.3913559482E-04       4    7    1         0.2228746337E-02      0.4888043797E-02

    ------------------------------------------------
       NWT REQUIRED            4 OUTER ITERATIONS 
       AND A TOTAL OF          7 INNER ITERATIONS.
    ------------------------------------------------

 NO OUTPUT CONTROL FOR STRESS PERIOD   32   TIME STEP   12
 
 SOLVING FOR HEAD 
                                                   Max.-Head-Change                         Max.-Flux-Residual
  Residual-Control   Outer-Iter.   Inner-Iter.     Column Row Layer    Maximum-Head-Change  Column Row Layer    Maximum-Flux-Residual          L2-NORM 
          0                 1           2             4    7     1      -0.1471325680E+00       4    7    1        -0.7715046583E+01      0.1687798633E+02
          0                 2           2             4    7     1       0.1431164715E-01       4    7    1         0.7714819122E+00      0.1687772943E+01
          0                 3           2             4    7     1      -0.9745734348E-03       4    7    1        -0.5400397239E-01      0.1181443963E+00
          0                 4           1             4    7     1       0.3877917370E-04       4    7    1         0.2208764546E-02      0.4832111402E-02

    ------------------------------------------------
       NWT REQUIRED            4 OUTER ITERATIONS 
       AND A TOTAL OF          7 INNER ITERATIONS.
    ------------------------------------------------

 NO OUTPUT CONTROL FOR STRESS PERIOD   32   TIME STEP   13
 
 SOLVING FOR HEAD 
                                                   Max.-Head-Change                         Max.-Flux-Residual
  Residual-Control   Outer-Iter.   Inner-Iter.     Column Row Layer    Maximum-Head-Change  Column Row Layer    Maximum-Flux-Residual          L2-NORM 
          0                 1           2             4    7     1      -0.1457734354E+00       4    7    1        -0.7644780063E+01      0.1668904149E+02
          0                 2           2             4    7     1       0.1417943999E-01       4    7    1         0.7644552115E+00      0.1668878841E+01
          0                 3           2             4    7     1      -0.9655706237E-03       4    7    1        -0.5351210359E-01      0.1168218059E+00
          0                 4           1             4    7     1       0.3842094358E-04       4    7    1         0.2188647090E-02      0.4778017474E-02

    ------------------------------------------------
       NWT REQUIRED            4 OUTER ITERATIONS 
       AND A TOTAL OF          7 INNER ITERATIONS.
    ------------------------------------------------

 NO OUTPUT CONTROL FOR STRESS PERIOD   32   TIME STEP   14
 
 SOLVING FOR HEAD 
                                                   Max.-Head-Change                         Max.-Flux-Residual
  Residual-Control   Outer-Iter.   Inner-Iter.     Column Row Layer    Maximum-Head-Change  Column Row Layer    Maximum-Flux-Residual          L2-NORM 
          0                 1           2             4    7     1      -0.1444094589E+00       4    7    1        -0.7574152018E+01      0.1650654035E+02
          0                 2           2             4    7     1       0.1404676233E-01       4    7    1         0.7573924041E+00      0.1650629126E+01
          0                 3           2             4    7     1      -0.9565357659E-03       4    7    1        -0.5301770690E-01      0.1155443210E+00
          0                 4           1             4    7     1       0.3806143785E-04       4    7    1         0.2168426222E-02      0.4725767971E-02

    ------------------------------------------------
       NWT REQUIRED            4 OUTER ITERATIONS 
       AND A TOTAL OF          7 INNER ITERATIONS.
    ------------------------------------------------

 NO OUTPUT CONTROL FOR STRESS PERIOD   32   TIME STEP   15
 
 SOLVING FOR HEAD 
                                                   Max.-Head-Change                         Max.-Flux-Residual
  Residual-Control   Outer-Iter.   Inner-Iter.     Column Row Layer    Maximum-Head-Change  Column Row Layer    Maximum-Flux-Residual          L2-NORM 
          0                 1           2             4    7     1      -0.1430427091E+00       4    7    1        -0.7503278298E+01      0.1633012924E+02
          0                 2           2             4    7     1       0.1391381550E-01       4    7    1         0.7503050706E+00      0.1632988425E+01
          0                 3           2             4    7     1      -0.9474825734E-03       4    7    1        -0.5252159296E-01      0.1143094675E+00
          0                 4           1             4    7     1       0.3770120324E-04       4    7    1         0.2148135151E-02      0.4675262977E-02

    ------------------------------------------------
       NWT REQUIRED            4 OUTER ITERATIONS 
       AND A TOTAL OF          7 INNER ITERATIONS.
    ------------------------------------------------

 NO OUTPUT CONTROL FOR STRESS PERIOD   32   TIME STEP   16
 
 SOLVING FOR HEAD 
                                                   Max.-Head-Change                         Max.-Flux-Residual
  Residual-Control   Outer-Iter.   Inner-Iter.     Column Row Layer    Maximum-Head-Change  Column Row Layer    Maximum-Flux-Residual          L2-NORM 
          0                 1           2             4    7     1      -0.1416749012E+00       4    7    1        -0.7432255516E+01      0.1615947225E+02
          0                 2           2             4    7     1       0.1378076630E-01       4    7    1         0.7432028681E+00      0.1615923144E+01
          0                 3           2             4    7     1      -0.9384224042E-03       4    7    1        -0.5202443787E-01      0.1131148934E+00
          0                 4           1             4    7     1       0.3734069060E-04       4    7    1         0.2127801476E-02      0.4626404316E-02

    ------------------------------------------------
       NWT REQUIRED            4 OUTER ITERATIONS 
       AND A TOTAL OF          7 INNER ITERATIONS.
    ------------------------------------------------

 NO OUTPUT CONTROL FOR STRESS PERIOD   32   TIME STEP   17
 
 SOLVING FOR HEAD 
                                                   Max.-Head-Change                         Max.-Flux-Residual
  Residual-Control   Outer-Iter.   Inner-Iter.     Column Row Layer    Maximum-Head-Change  Column Row Layer    Maximum-Flux-Residual          L2-NORM 
          0                 1           2             4    7     1      -0.1403078065E+00       4    7    1        -0.7361183352E+01      0.1599426619E+02
          0                 2           2             4    7     1       0.1364778697E-01       4    7    1         0.7360957610E+00      0.1599402965E+01
          0                 3           2             4    7     1      -0.9293669881E-03       4    7    1        -0.5152693910E-01      0.1119584758E+00
          0                 4           1             4    7     1       0.3698036711E-04       4    7    1         0.2107453764E-02      0.4579107248E-02

    ------------------------------------------------
       NWT REQUIRED            4 OUTER ITERATIONS 
       AND A TOTAL OF          7 INNER ITERATIONS.
    ------------------------------------------------

 NO OUTPUT CONTROL FOR STRESS PERIOD   32   TIME STEP   18
 
 SOLVING FOR HEAD 
                                                   Max.-Head-Change                         Max.-Flux-Residual
  Residual-Control   Outer-Iter.   Inner-Iter.     Column Row Layer    Maximum-Head-Change  Column Row Layer    Maximum-Flux-Residual          L2-NORM 
          0                 1           2             4    7     1      -0.1389429954E+00       4    7    1        -0.7290150189E+01      0.1583421908E+02
          0                 2           2             4    7     1       0.1351503020E-01       4    7    1         0.7289925838E+00      0.1583398682E+01
          0                 3           2             4    7     1      -0.9203267240E-03       4    7    1        -0.5102971518E-01      0.1108381712E+00
          0                 4           1             4    7     1       0.3662064678E-04       4    7    1         0.2087117278E-02      0.4533287015E-02

    ------------------------------------------------
       NWT REQUIRED            4 OUTER ITERATIONS 
       AND A TOTAL OF          7 INNER ITERATIONS.
    ------------------------------------------------

 NO OUTPUT CONTROL FOR STRESS PERIOD   32   TIME STEP   19
 
 SOLVING FOR HEAD 
                                                   Max.-Head-Change                         Max.-Flux-Residual
  Residual-Control   Outer-Iter.   Inner-Iter.     Column Row Layer    Maximum-Head-Change  Column Row Layer    Maximum-Flux-Residual          L2-NORM 
          0                 1           2             4    7     1      -0.1375818638E+00       4    7    1        -0.7219234580E+01      0.1567909337E+02
          0                 2           2             4    7     1       0.1338263175E-01       4    7    1         0.7219011889E+00      0.1567886546E+01
          0                 3           2             4    7     1      -0.9113108549E-03       4    7    1        -0.5053331575E-01      0.1097523173E+00
          0                 4           1             4    7     1       0.3626189663E-04       4    7    1         0.2066814517E-02      0.4488874440E-02

    ------------------------------------------------
       NWT REQUIRED            4 OUTER ITERATIONS 
       AND A TOTAL OF          7 INNER ITERATIONS.
    ------------------------------------------------

 NO OUTPUT CONTROL FOR STRESS PERIOD   32   TIME STEP   20
 
 SOLVING FOR HEAD 
                                                   Max.-Head-Change                         Max.-Flux-Residual
  Residual-Control   Outer-Iter.   Inner-Iter.     Column Row Layer    Maximum-Head-Change  Column Row Layer    Maximum-Flux-Residual          L2-NORM 
          0                 1           2             4    7     1      -0.1362255853E+00       4    7    1        -0.7148503545E+01      0.1552861877E+02
          0                 2           2             4    7     1       0.1325070571E-01       4    7    1         0.7148282753E+00      0.1552839518E+01
          0                 3           2             4    7     1      -0.9023271531E-03       4    7    1        -0.5003820980E-01      0.1086990213E+00
          0                 4           1             4    7     1       0.3590442704E-04       4    7    1         0.2046564661E-02      0.4445794911E-02

    ------------------------------------------------
       NWT REQUIRED            4 OUTER ITERATIONS 
       AND A TOTAL OF          7 INNER ITERATIONS.
    ------------------------------------------------

 NO OUTPUT CONTROL FOR STRESS PERIOD   32   TIME STEP   21
 
 SOLVING FOR HEAD 
                                                   Max.-Head-Change                         Max.-Flux-Residual
  Residual-Control   Outer-Iter.   Inner-Iter.     Column Row Layer    Maximum-Head-Change  Column Row Layer    Maximum-Flux-Residual          L2-NORM 
          0                 1           2             4    7     1      -0.1348754391E+00       4    7    1        -0.7078029616E+01      0.1538257774E+02
          0                 2           2             4    7     1       0.1311937649E-01       4    7    1         0.7077810934E+00      0.1538235847E+01
          0                 3           2             4    7     1      -0.8933840886E-03       4    7    1        -0.4954490483E-01      0.1076767602E+00
          0                 4           1             4    7     1       0.3554857454E-04       4    7    1         0.2026388482E-02      0.4403984572E-02

    ------------------------------------------------
       NWT REQUIRED            4 OUTER ITERATIONS 
       AND A TOTAL OF          7 INNER ITERATIONS.
    ------------------------------------------------

 NO OUTPUT CONTROL FOR STRESS PERIOD   32   TIME STEP   22
 
 SOLVING FOR HEAD 
                                                   Max.-Head-Change                         Max.-Flux-Residual
  Residual-Control   Outer-Iter.   Inner-Iter.     Column Row Layer    Maximum-Head-Change  Column Row Layer    Maximum-Flux-Residual          L2-NORM 
          0                 1           2             4    7     1      -0.1335325376E+00       4    7    1        -0.7007875662E+01      0.1524076609E+02
          0                 2           2             4    7     1       0.1298875225E-01       4    7    1         0.7007659275E+00      0.1524055090E+01
          0                 3           2             4    7     1      -0.8844890286E-03       4    7    1        -0.4905384084E-01      0.1066841023E+00
          0                 4           1             4    7     1       0.3519463212E-04       4    7    1         0.2006303954E-02      0.4363384434E-02

    ------------------------------------------------
       NWT REQUIRED            4 OUTER ITERATIONS 
       AND A TOTAL OF          7 INNER ITERATIONS.
    ------------------------------------------------

 NO OUTPUT CONTROL FOR STRESS PERIOD   32   TIME STEP   23
 
 SOLVING FOR HEAD 
                                                   Max.-Head-Change                         Max.-Flux-Residual
  Residual-Control   Outer-Iter.   Inner-Iter.     Column Row Layer    Maximum-Head-Change  Column Row Layer    Maximum-Flux-Residual          L2-NORM 
          0                 1           2             4    7     1      -0.1321978375E+00       4    7    1        -0.6938096500E+01      0.1510297792E+02
          0                 2           2             4    7     1       0.1285892603E-01       4    7    1         0.6937882572E+00      0.1510276690E+01
          0                 3           2             4    7     1      -0.8756483075E-03       4    7    1        -0.4856540139E-01      0.1057196094E+00
          0                 4           1             4    7     1       0.3484285133E-04       4    7    1         0.1986326746E-02      0.4323936595E-02

    ------------------------------------------------
       NWT REQUIRED            4 OUTER ITERATIONS 
       AND A TOTAL OF          7 INNER ITERATIONS.
    ------------------------------------------------

 NO OUTPUT CONTROL FOR STRESS PERIOD   32   TIME STEP   24
 
 SOLVING FOR HEAD 
                                                   Max.-Head-Change                         Max.-Flux-Residual
  Residual-Control   Outer-Iter.   Inner-Iter.     Column Row Layer    Maximum-Head-Change  Column Row Layer    Maximum-Flux-Residual          L2-NORM 
          0                 1           2             4    7     1      -0.1308722201E+00       4    7    1        -0.6868742688E+01      0.1496903394E+02
          0                 2           2             4    7     1       0.1272998351E-01       4    7    1         0.6868531360E+00      0.1496882718E+01
          0                 3           2             4    7     1      -0.8668677619E-03       4    7    1        -0.4807994023E-01      0.1047820276E+00
          0                 4           1             4    7     1       0.3449346566E-04       4    7    1         0.1966471378E-02      0.4285589909E-02

    ------------------------------------------------
       NWT REQUIRED            4 OUTER ITERATIONS 
       AND A TOTAL OF          7 INNER ITERATIONS.
    ------------------------------------------------

 NO OUTPUT CONTROL FOR STRESS PERIOD   32   TIME STEP   25
 
 SOLVING FOR HEAD 
                                                   Max.-Head-Change                         Max.-Flux-Residual
  Residual-Control   Outer-Iter.   Inner-Iter.     Column Row Layer    Maximum-Head-Change  Column Row Layer    Maximum-Flux-Residual          L2-NORM 
          0                 1           2             4    7     1      -0.1295564850E+00       4    7    1        -0.6799859925E+01      0.1483876484E+02
          0                 2           2             4    7     1       0.1260200244E-01       4    7    1         0.6799651319E+00      0.1483856229E+01
          0                 3           2             4    7     1      -0.8581526856E-03       4    7    1        -0.4759777716E-01      0.1038701692E+00
          0                 4           1             4    7     1       0.3414668486E-04       4    7    1         0.1946750892E-02      0.4248295208E-02

    ------------------------------------------------
       NWT REQUIRED            4 OUTER ITERATIONS 
       AND A TOTAL OF          7 INNER ITERATIONS.
    ------------------------------------------------

 NO OUTPUT CONTROL FOR STRESS PERIOD   32   TIME STEP   26
 
 SOLVING FOR HEAD 
                                                   Max.-Head-Change                         Max.-Flux-Residual
  Residual-Control   Outer-Iter.   Inner-Iter.     Column Row Layer    Maximum-Head-Change  Column Row Layer    Maximum-Flux-Residual          L2-NORM 
          0                 1           2             4    7     1      -0.1282514994E+00       4    7    1        -0.6731497870E+01      0.1471200713E+02
          0                 2           2             4    7     1       0.1247506716E-01       4    7    1         0.6731292090E+00      0.1471180873E+01
          0                 3           2             4    7     1      -0.8495088220E-03       4    7    1        -0.4711925967E-01      0.1029828889E+00
          0                 4           1             4    7     1       0.3380273747E-04       4    7    1         0.1927179499E-02      0.4212005365E-02

    ------------------------------------------------
       NWT REQUIRED            4 OUTER ITERATIONS 
       AND A TOTAL OF          7 INNER ITERATIONS.
    ------------------------------------------------

 NO OUTPUT CONTROL FOR STRESS PERIOD   32   TIME STEP   27
 
 SOLVING FOR HEAD 
                                                   Max.-Head-Change                         Max.-Flux-Residual
  Residual-Control   Outer-Iter.   Inner-Iter.     Column Row Layer    Maximum-Head-Change  Column Row Layer    Maximum-Flux-Residual          L2-NORM 
          0                 1           2             4    7     1      -0.1269577332E+00       4    7    1        -0.6663684121E+01      0.1458861701E+02
          0                 2           2             4    7     1       0.1234922334E-01       4    7    1         0.6663481256E+00      0.1458848267E+01
          0                 3           2             4    7     1      -0.8409392825E-03       4    7    1        -0.4664458087E-01      0.1021196018E+00
          0                 4           1             4    7     1       0.3346174782E-04       4    7    1         0.1907765137E-02      0.4176696846E-02

    ------------------------------------------------
       NWT REQUIRED            4 OUTER ITERATIONS 
       AND A TOTAL OF          7 INNER ITERATIONS.
    ------------------------------------------------

 NO OUTPUT CONTROL FOR STRESS PERIOD   32   TIME STEP   28
 
 SOLVING FOR HEAD 
                                                   Max.-Head-Change                         Max.-Flux-Residual
  Residual-Control   Outer-Iter.   Inner-Iter.     Column Row Layer    Maximum-Head-Change  Column Row Layer    Maximum-Flux-Residual          L2-NORM 
          0                 1           2             4    7     1      -0.1256759454E+00       4    7    1        -0.6596462312E+01      0.1446844869E+02
          0                 2           2             4    7     1       0.1222454481E-01       4    7    1         0.6596262436E+00      0.1446825953E+01
          0                 3           2             4    7     1      -0.8324490931E-03       4    7    1        -0.4617404610E-01      0.1012780351E+00
          0                 4           1             4    7     1       0.3312391567E-04       4    7    1         0.1888520257E-02      0.4142276036E-02

    ------------------------------------------------
       NWT REQUIRED            4 OUTER ITERATIONS 
       AND A TOTAL OF          7 INNER ITERATIONS.
    ------------------------------------------------

 NO OUTPUT CONTROL FOR STRESS PERIOD   32   TIME STEP   29
 
 SOLVING FOR HEAD 
                                                   Max.-Head-Change                         Max.-Flux-Residual
  Residual-Control   Outer-Iter.   Inner-Iter.     Column Row Layer    Maximum-Head-Change  Column Row Layer    Maximum-Flux-Residual          L2-NORM 
          0                 1           2             4    7     1      -0.1244065837E+00       4    7    1        -0.6529858829E+01      0.1435132857E+02
          0                 2           2             4    7     1       0.1210107516E-01       4    7    1         0.6529662000E+00      0.1435155033E+01
          0                 3           2             4    7     1      -0.8240412227E-03       4    7    1        -0.4570783998E-01      0.1004610671E+00
          0                 4           1             4    7     1       0.3278935831E-04       4    7    1         0.1869452386E-02      0.4108863399E-02

    ------------------------------------------------
       NWT REQUIRED            4 OUTER ITERATIONS 
       AND A TOTAL OF          7 INNER ITERATIONS.
    ------------------------------------------------

 NO OUTPUT CONTROL FOR STRESS PERIOD   32   TIME STEP   30



 STREAM LISTING     PERIOD     32   STEP       30

 LAYER ROW COL. STREAM  RCH.  FLOW INTO     FLOW TO   FLOW OUT OF   OVRLND.     DIRECT     STREAM       STREAM     STREAM     STREAM   STREAMBED  STREAMBED
                SEG.NO.  NO.  STRM. RCH.    AQUIFER    STRM. RCH.    RUNOFF     PRECIP       ET          HEAD       DEPTH      WIDTH   CONDCTNC.   GRADIENT

   1    1    1     1     1    1.9000E+01  2.1427E-01   1.8786E+01  0.000E+00  0.000E+00  0.000E+00  1.09413E+03  1.082E+00  1.166E+01  5.249E-02  1.361E+00
   1    2    2     1     2    1.8786E+01  3.3054E-01   1.8455E+01  0.000E+00  0.000E+00  0.000E+00  1.08914E+03  1.077E+00  1.158E+01  8.107E-02  1.359E+00
   1    3    3     1     3    1.8455E+01  2.8064E-01   1.8175E+01  0.000E+00  0.000E+00  0.000E+00  1.08349E+03  1.072E+00  1.149E+01  6.892E-02  1.357E+00
   1    3    4     1     4    1.8175E+01  2.5740E-01   1.7917E+01  0.000E+00  0.000E+00  0.000E+00  1.07848E+03  1.068E+00  1.140E+01  6.328E-02  1.356E+00
   1    4    5     2     1    1.5917E+01  3.0542E-01   1.5612E+01  0.000E+00  0.000E+00  0.000E+00  1.07285E+03  9.157E-01  1.200E+01  7.800E-02  1.305E+00
   1    5    6     2     2    1.5612E+01  2.3438E-01   1.5377E+01  0.000E+00  0.000E+00  0.000E+00  1.06742E+03  9.063E-01  1.200E+01  6.000E-02  1.302E+00
   1    6    6     2     3    1.5377E+01  2.3388E-01   1.5143E+01  0.000E+00  0.000E+00  0.000E+00  1.06269E+03  8.980E-01  1.200E+01  6.000E-02  1.299E+00
   1    7    6     2     4    1.5143E+01  2.3338E-01   1.4910E+01  0.000E+00  0.000E+00  0.000E+00  1.05797E+03  8.897E-01  1.200E+01  6.000E-02  1.297E+00
   1    8    6     2     5    1.4910E+01  2.3289E-01   1.4677E+01  0.000E+00  0.000E+00  0.000E+00  1.05324E+03  8.814E-01  1.200E+01  6.000E-02  1.294E+00
   1    3    5     3     1    2.0000E+00  2.8252E-01   1.7175E+00  0.000E+00  0.000E+00  0.000E+00  1.07555E+03  1.909E+00  9.636E+00  7.227E-02  1.955E+00
   1    3    6     3     2    1.7175E+00  2.4905E-01   1.4684E+00  0.000E+00  0.000E+00  0.000E+00  1.07264E+03  1.727E+00  8.909E+00  6.682E-02  1.864E+00
   1    3    7     3     3    1.4684E+00  1.9718E-01   1.2712E+00  0.000E+00  0.000E+00  0.000E+00  1.06987E+03  1.555E+00  8.218E+00  5.547E-02  1.777E+00
   1    4    8     3     4    1.2712E+00  2.2567E-01   1.0456E+00  0.000E+00  0.000E+00  0.000E+00  1.06682E+03  1.364E+00  7.455E+00  6.709E-02  1.682E+00
   1    5    8     3     5    1.0456E+00  1.5790E-01   8.8768E-01  0.000E+00  0.000E+00  0.000E+00  1.06362E+03  1.164E+00  6.655E+00  4.991E-02  1.582E+00
   1    6    8     3     6    8.8768E-01  5.5980E-02   8.3170E-01  0.000E+00  0.000E+00  0.000E+00  1.06158E+03  1.036E+00  6.145E+00  1.844E-02  1.518E+00
   1    5   10     4     1    1.0000E+01  9.0919E-02   9.9091E+00  0.000E+00  0.000E+00  0.000E+00  1.07836E+03  6.368E-01  1.000E+01  2.500E-02  1.212E+00
   1    5    9     4     2    9.9091E+00  1.8158E-01   9.7275E+00  0.000E+00  0.000E+00  0.000E+00  1.07154E+03  6.315E-01  1.000E+01  5.000E-02  1.211E+00
   1    6    8     4     3    9.7275E+00  1.2689E-01   9.6006E+00  0.000E+00  0.000E+00  0.000E+00  1.06381E+03  6.256E-01  1.000E+01  3.500E-02  1.209E+00
   1    6    8     5     1    1.0432E+01  2.2686E-01   1.0205E+01  0.000E+00  0.000E+00  0.000E+00  1.05868E+03  6.790E-01  1.542E+01  6.166E-02  1.226E+00
   1    7    7     5     2    1.0205E+01  2.7894E-01   9.9265E+00  0.000E+00  0.000E+00  0.000E+00  1.05417E+03  6.732E-01  1.519E+01  7.594E-02  1.224E+00
   1    8    7     5     3    9.9265E+00  1.9221E-01   9.7343E+00  0.000E+00  0.000E+00  0.000E+00  1.04992E+03  6.676E-01  1.497E+01  5.241E-02  1.223E+00
   1    8    6     5     4    9.7343E+00  1.3577E-01   9.5985E+00  0.000E+00  0.000E+00  0.000E+00  1.04691E+03  6.637E-01  1.482E+01  3.706E-02  1.221E+00
   1    9    6     6     1    2.4276E+01  2.5176E-01   2.4024E+01  0.000E+00  0.000E+00  0.000E+00  1.04392E+03  1.196E+00  1.200E+01  6.000E-02  1.399E+00
   1   10    7     6     2    2.4024E+01  2.5131E-01   2.3773E+01  0.000E+00  0.000E+00  0.000E+00  1.03937E+03  1.188E+00  1.200E+01  6.000E-02  1.396E+00
   1   11    7     6     3    2.3773E+01  2.5086E-01   2.3522E+01  0.000E+00  0.000E+00  0.000E+00  1.03482E+03  1.181E+00  1.200E+01  6.000E-02  1.394E+00
   1   12    7     6     4    2.3522E+01  2.5041E-01   2.3271E+01  0.000E+00  0.000E+00  0.000E+00  1.03026E+03  1.173E+00  1.200E+01  6.000E-02  1.391E+00
   1   13    7     6     5    2.3271E+01  6.4924E-03   2.3265E+01  0.000E+00  0.000E+00  0.000E+00  1.02708E+03  1.170E+00  1.200E+01  2.400E-02  9.017E-02
   1   14    9     7     1    1.5000E+02  1.3491E+00   1.4865E+02  0.000E+00  0.000E+00  0.000E+00  1.03987E+03  2.288E+00  5.529E+01  5.593E-01  8.041E-01
   1   13    8     7     2    1.4865E+02  1.9069E+00   1.4674E+02  0.000E+00  0.000E+00  0.000E+00  1.03478E+03  2.279E+00  5.526E+01  6.148E-01  1.034E+00
   1   13    7     7     3    1.4674E+02  1.6087E+00   1.4514E+02  0.000E+00  0.000E+00  0.000E+00  1.02969E+03  2.270E+00  5.521E+01  5.584E-01  9.603E-01
   1   13    6     8     1    1.6840E+02  1.0494E+00   1.6735E+02  0.000E+00  0.000E+00  0.000E+00  1.02481E+03  2.938E+00  4.261E+01  4.342E-01  8.057E-01
   1   13    5     8     2    1.6735E+02  2.9457E-01   1.6706E+02  0.000E+00  0.000E+00  0.000E+00  1.01856E+03  2.934E+00  4.254E+01  4.335E-01  2.265E-01
   1   13    4     8     3    1.6706E+02 -2.0400E+00   1.6910E+02  0.000E+00  0.000E+00  0.000E+00  1.01231E+03  2.940E+00  4.262E+01  4.344E+00 -1.566E-01
   1   13    3     8     4    1.6910E+02 -3.4541E+00   1.7255E+02  0.000E+00  0.000E+00  0.000E+00  1.00608E+03  2.958E+00  4.288E+01  4.370E+00 -2.635E-01
   1   13    2     8     5    1.7255E+02 -2.5301E+00   1.7508E+02  0.000E+00  0.000E+00  0.000E+00  9.99852E+02  2.977E+00  4.316E+01  4.399E+00 -1.917E-01
   1   13    1     8     6    1.7508E+02 -1.9710E+00   1.7705E+02  0.000E+00  0.000E+00  0.000E+00  9.94866E+02  2.991E+00  4.337E+01  2.652E+00 -2.477E-01





UNSATURATED ZONE PACKAGE VOLUMETRIC BUDGET FOR  TIME STEP    30 STRESS PERIOD   32
  ------------------------------------------------------------------------------



     CUMULATIVE VOLUMES      L**3       RATES FOR THIS TIME STEP      L**3/T
     ------------------                 ------------------------

           IN:                                      IN:
           ---                                      ---
        INFILTRATION =  1397142826.6211          INFILTRATION =          64.0394

          OUT:                                     OUT:
          ----                                     ----
              UZF ET =  1306600439.3591                UZF ET =          64.1075
        UZF RECHARGE =      883570.4786          UZF RECHARGE =           0.0002

            IN - OUT =    89658816.7834              IN - OUT =      -6.8297E-02

          STORAGE:                                 STORAGE:
          --------                                 --------
      STORAGE CHANGE =    89659750.3966        STORAGE CHANGE =      -6.8297E-02

 PERCENT DISCREPANCY IS DIFFERENCE BETWEEN IN-OUT MINUS CHANGE IN STORAGE
 DIVIDED BY THE AVERAGE OF IN AND OUT TIMES 100

 PERCENT DISCREPANCY =          -0.00     PERCENT DISCREPANCY =           0.00






1
  VOLUMETRIC BUDGET FOR AGRICULTURAL FIELDS AT TIME STEP   30, STRESS PERIOD  32
  ------------------------------------------------------------------------------

     CUMULATIVE VOLUMES      L**3       RATES FOR THIS TIME STEP      L**3/T
     ------------------                 ------------------------

           IN:                                      IN:
           ---                                      ---
               AG WELLS  =  1037725824.0000                 AG WELLS  =          59.6319
      DIVERSION SEGMENTS =           0.0000        DIVERSION SEGMENTS =           0.0000
           GW IRRIGATION =           0.0000             GW IRRIGATION =           0.0000
           SW IRRIGATION =           0.0000             SW IRRIGATION =           0.0000
        SYSTEM LOSSES GW =           0.0000          SYSTEM LOSSES GW =           0.0000
        SYSTEM LOSSES SW =           0.0000          SYSTEM LOSSES SW =           0.0000

                TOTAL IN =  1037725824.0000                  TOTAL IN =          59.6319

          OUT:                                     OUT:
          ----                                     ----
               AG WELLS  =           0.0000                 AG WELLS  =           0.0000
      DIVERSION SEGMENTS =           0.0000        DIVERSION SEGMENTS =           0.0000
           GW IRRIGATION =  1037725824.0000             GW IRRIGATION =          59.6319
           SW IRRIGATION =           0.0000             SW IRRIGATION =           0.0000
        SYSTEM LOSSES GW =           0.0000          SYSTEM LOSSES GW =           0.0000
        SYSTEM LOSSES SW =           0.0000          SYSTEM LOSSES SW =           0.0000

               TOTAL OUT =  1037725824.0000                 TOTAL OUT =          59.6319

                IN - OUT =           0.0000                  IN - OUT =           0.0000

     PERCENT DISCREPANCY =           0.00         PERCENT DISCREPANCY =           0.00



1
  VOLUMETRIC BUDGET FOR ENTIRE MODEL AT END OF TIME STEP   30, STRESS PERIOD  32
  ------------------------------------------------------------------------------

     CUMULATIVE VOLUMES      L**3       RATES FOR THIS TIME STEP      L**3/T
     ------------------                 ------------------------

           IN:                                      IN:
           ---                                      ---
             STORAGE     =  1363098880.0000               STORAGE     =          57.7566
       CONSTANT HEAD     =           0.0000         CONSTANT HEAD     =           0.0000
     HEAD DEP BOUNDS     =    23313112.0000       HEAD DEP BOUNDS     =           0.2867
      STREAM LEAKAGE     =  1002152832.0000        STREAM LEAKAGE     =          11.9438
        UZF RECHARGE     =      883570.4375          UZF RECHARGE     =       2.1204E-04
               GW ET     =           0.0000                 GW ET     =           0.0000
     SURFACE LEAKAGE     =           0.0000       SURFACE LEAKAGE     =           0.0000
           AG WELLS      =           0.0000             AG WELLS      =           0.0000

                TOTAL IN =  2389448448.0000                  TOTAL IN =          69.9873

          OUT:                                     OUT:
          ----                                     ----
             STORAGE     =   467283360.0000               STORAGE     =       7.1241E-02
       CONSTANT HEAD     =           0.0000         CONSTANT HEAD     =           0.0000
     HEAD DEP BOUNDS     =    23912148.0000       HEAD DEP BOUNDS     =           0.2892
      STREAM LEAKAGE     =   843183296.0000        STREAM LEAKAGE     =           9.9952
        UZF RECHARGE     =           0.0000          UZF RECHARGE     =           0.0000
               GW ET     =    17343536.0000                 GW ET     =           0.0000
     SURFACE LEAKAGE     =           0.0000       SURFACE LEAKAGE     =           0.0000
           AG WELLS      =  1037725824.0000             AG WELLS      =          59.6319

               TOTAL OUT =  2389448192.0000                 TOTAL OUT =          69.9875

                IN - OUT =         256.0000                  IN - OUT =      -2.0599E-04

     PERCENT DISCREPANCY =           0.00         PERCENT DISCREPANCY =          -0.00






         TIME SUMMARY AT END OF TIME STEP   30 IN STRESS PERIOD   32
                    SECONDS     MINUTES      HOURS       DAYS        YEARS
                    -----------------------------------------------------------
   TIME STEP LENGTH  87667.      1461.1      24.352      1.0147     2.77799E-03
 STRESS PERIOD TIME 2.63000E+06  43833.      730.56      30.440     8.33397E-02
         TOTAL TIME 8.16164E+07 1.36027E+06  22671.      944.63      2.5863    
1
1
                            STRESS PERIOD NO.   33, LENGTH =   2630000.    
                            -----------------------------------------------

                              NUMBER OF TIME STEPS =    30

                               MULTIPLIER FOR DELT =     1.000

                            INITIAL TIME STEP SIZE =   87666.66    

 REUSING NON-PARAMETER GHB CELLS FROM LAST STRESS PERIOD

      2 GHB CELLS

 REUSING STREAM SEGMENT DATA FROM LAST STRESS PERIOD



            AREAL INFILTRATION RATE
 READING ON UNIT   19 WITH FORMAT: (10F4.0)            

            1           2           3           4           5           6           7           8           9          10
 ........................................................................................................................
   1   1.2000E-09   0.000       0.000       0.000       0.000       0.000       0.000       0.000       0.000       0.000    
   2   2.1000E-09  2.0000E-09  8.0000E-10  8.5000E-09   0.000       0.000       0.000       0.000       0.000       0.000    
   3   5.0000E-10  1.1000E-09  8.8000E-09  5.5000E-09   0.000       0.000       0.000       0.000       0.000       0.000    
   4   8.5000E-09  1.1000E-09  1.1000E-09  1.1000E-09  2.0000E-09   0.000       0.000       0.000       0.000       0.000    
   5   8.5000E-09  1.1000E-09  1.1000E-09  1.1000E-09  1.1000E-09   0.000       0.000       0.000       0.000       0.000    
   6   8.5000E-09  5.2000E-09  2.1000E-09  1.1000E-09  1.5000E-09   0.000       0.000       0.000       0.000       0.000    
   7   8.5000E-09  5.2000E-09  2.1000E-09  1.2000E-09  2.0000E-09   0.000       0.000       0.000       0.000       0.000    
   8   5.0000E-10  5.2000E-09  2.1000E-09  1.2000E-09  5.0000E-09   0.000       0.000       0.000       0.000       0.000    
   9   5.0000E-10  5.2000E-09  2.1000E-09  1.2000E-09  5.0000E-09   0.000       0.000       0.000       0.000       0.000    
  10   5.0000E-10  5.2000E-09  2.1000E-09  1.2000E-09  5.8000E-09   0.000       0.000       0.000       0.000       0.000    
  11   1.0000E-10  1.1000E-09  1.1000E-09  1.2000E-09  5.0000E-09   0.000       0.000       0.000       0.000       0.000    
  12   1.1000E-09  1.1000E-09  1.1000E-09  1.1000E-09  2.0000E-09   0.000       0.000       0.000       0.000       0.000    
  13   1.1000E-09  2.2000E-09  2.2000E-09  2.1000E-09  1.0000E-09   0.000       0.000       0.000       0.000       0.000    
  14   2.0000E-10  5.5000E-09  5.5000E-09  5.2000E-09  1.0000E-09   0.000       0.000       0.000       0.000       0.000    
  15    0.000      8.8000E-09  8.8000E-09   0.000       0.000       0.000       0.000       0.000       0.000       0.000    

                  ET RATE =  3.250000E-07

 USING ET EXTINCTION DEPTH FROM PREVIOUS STRESS PERIOD. CURRENT PERIOD IS:      33

 USING EXTINCTION WATER CONTENT FROM PREVIOUS STRESS PERIOD. CURRENT PERIOD IS:      33

 USING AIR ENTRY PRESSURE FROM PREVIOUS STRESS PERIOD. CURRENT PERIOD IS:      33

 USING ROOT PRESSURE HEAD FROM PREVIOUS STRESS PERIOD. CURRENT PERIOD IS:      33

 USING ROOT ACTIVITY FROM PREVIOUS STRESS PERIOD. CURRENT PERIOD IS:      33

 PROCESSING AG STRESS PERIOD DATA

 READING AG STRESS PERIOD DATA

 READING IRRIGATION WELL

 END PROCESSING AG STRESS PERIOD DATA OPTIONS
 
 SOLVING FOR HEAD 
                                                   Max.-Head-Change                         Max.-Flux-Residual
  Residual-Control   Outer-Iter.   Inner-Iter.     Column Row Layer    Maximum-Head-Change  Column Row Layer    Maximum-Flux-Residual          L2-NORM 
          0                 1           2             4    7     1      -0.8723300213E-01       4    7    1        -0.4588901638E+01      0.1020749165E+02
          0                 2           2             4    7     1       0.8485215840E-02       4    7    1         0.4588782353E+00      0.1020740811E+01
          0                 3           2             4    7     1      -0.5778134681E-03       4    7    1        -0.3212160320E-01      0.7145196051E-01
          0                 4           1             4    7     1       0.2299173093E-04       4    7    1         0.1313774878E-02      0.2922388743E-02

    ------------------------------------------------
       NWT REQUIRED            4 OUTER ITERATIONS 
       AND A TOTAL OF          7 INNER ITERATIONS.
    ------------------------------------------------

 NO OUTPUT CONTROL FOR STRESS PERIOD   33   TIME STEP    1
 
 SOLVING FOR HEAD 
                                                   Max.-Head-Change                         Max.-Flux-Residual
  Residual-Control   Outer-Iter.   Inner-Iter.     Column Row Layer    Maximum-Head-Change  Column Row Layer    Maximum-Flux-Residual          L2-NORM 
          0                 1           2             4    7     1      -0.8617575979E-01       4    7    1        -0.4532462715E+01      0.1014546848E+02
          0                 2           2             4    7     1       0.8382380588E-02       4    7    1         0.4532347242E+00      0.1014538686E+01
          0                 3           2             4    7     1      -0.5708107144E-03       4    7    1        -0.3172655366E-01      0.7101780985E-01
          0                 4           1             4    7     1       0.2271308564E-04       4    7    1         0.1297617365E-02      0.2904631373E-02

    ------------------------------------------------
       NWT REQUIRED            4 OUTER ITERATIONS 
       AND A TOTAL OF          7 INNER ITERATIONS.
    ------------------------------------------------

 NO OUTPUT CONTROL FOR STRESS PERIOD   33   TIME STEP    2
 
 SOLVING FOR HEAD 
                                                   Max.-Head-Change                         Max.-Flux-Residual
  Residual-Control   Outer-Iter.   Inner-Iter.     Column Row Layer    Maximum-Head-Change  Column Row Layer    Maximum-Flux-Residual          L2-NORM 
          0                 1           2             4    7     1      -0.8514661306E-01       4    7    1        -0.4477534662E+01      0.1008490455E+02
          0                 2           2             4    7     1       0.8282278036E-02       4    7    1         0.4477422841E+00      0.1008482474E+01
          0                 3           2             4    7     1      -0.5639940493E-03       4    7    1        -0.3134207923E-01      0.7059387446E-01
          0                 4           1             4    7     1       0.2244184409E-04       4    7    1         0.1281892340E-02      0.2887292569E-02

    ------------------------------------------------
       NWT REQUIRED            4 OUTER ITERATIONS 
       AND A TOTAL OF          7 INNER ITERATIONS.
    ------------------------------------------------

 NO OUTPUT CONTROL FOR STRESS PERIOD   33   TIME STEP    3
 
 SOLVING FOR HEAD 
                                                   Max.-Head-Change                         Max.-Flux-Residual
  Residual-Control   Outer-Iter.   Inner-Iter.     Column Row Layer    Maximum-Head-Change  Column Row Layer    Maximum-Flux-Residual          L2-NORM 
          0                 1           2             4    7     1      -0.8414440030E-01       4    7    1        -0.4424055221E+01      0.1002572259E+02
          0                 2           2             4    7     1       0.8184795203E-02       4    7    1         0.4423946901E+00      0.1002564452E+01
          0                 3           2             4    7     1      -0.5573557792E-03       4    7    1        -0.3096774417E-01      0.7017961081E-01
          0                 4           1             4    7     1       0.2217770131E-04       4    7    1         0.1266582036E-02      0.2870351987E-02

    ------------------------------------------------
       NWT REQUIRED            4 OUTER ITERATIONS 
       AND A TOTAL OF          7 INNER ITERATIONS.
    ------------------------------------------------

 NO OUTPUT CONTROL FOR STRESS PERIOD   33   TIME STEP    4
 
 SOLVING FOR HEAD 
                                                   Max.-Head-Change                         Max.-Flux-Residual
  Residual-Control   Outer-Iter.   Inner-Iter.     Column Row Layer    Maximum-Head-Change  Column Row Layer    Maximum-Flux-Residual          L2-NORM 
          0                 1           2             4    7     1      -0.8316827699E-01       4    7    1        -0.4371979607E+01      0.9967845385E+01
          0                 2           2             4    7     1       0.8089760300E-02       4    7    1         0.4371874642E+00      0.9967443984E+00
          0                 3           2             4    7     1      -0.5508842061E-03       4    7    1        -0.3060323507E-01      0.6977220437E-01
          0                 4           1             4    7     1       0.2192019161E-04       4    7    1         0.1251673607E-02      0.2853686332E-02

    ------------------------------------------------
       NWT REQUIRED            4 OUTER ITERATIONS 
       AND A TOTAL OF          7 INNER ITERATIONS.
    ------------------------------------------------

 NO OUTPUT CONTROL FOR STRESS PERIOD   33   TIME STEP    5
 
 SOLVING FOR HEAD 
                                                   Max.-Head-Change                         Max.-Flux-Residual
  Residual-Control   Outer-Iter.   Inner-Iter.     Column Row Layer    Maximum-Head-Change  Column Row Layer    Maximum-Flux-Residual          L2-NORM 
          0                 1           2             4    7     1      -0.8221774510E-01       4    7    1        -0.4321268806E+01      0.9911247105E+01
          0                 2           2             4    7     1       0.7997393951E-02       4    7    1         0.4321167069E+00      0.9911172671E+00
          0                 3           2             4    7     1      -0.5445943531E-03       4    7    1        -0.3024827881E-01      0.6937830346E-01
          0                 4           1             4    7     1       0.2166991215E-04       4    7    1         0.1237155872E-02      0.2837576214E-02

    ------------------------------------------------
       NWT REQUIRED            4 OUTER ITERATIONS 
       AND A TOTAL OF          7 INNER ITERATIONS.
    ------------------------------------------------

 NO OUTPUT CONTROL FOR STRESS PERIOD   33   TIME STEP    6
 
 SOLVING FOR HEAD 
                                                   Max.-Head-Change                         Max.-Flux-Residual
  Residual-Control   Outer-Iter.   Inner-Iter.     Column Row Layer    Maximum-Head-Change  Column Row Layer    Maximum-Flux-Residual          L2-NORM 
          0                 1           2             4    7     1      -0.8129143776E-01       4    7    1        -0.4271868162E+01      0.9855852737E+01
          0                 2           2             4    7     1       0.7907294033E-02       4    7    1         0.4271769514E+00      0.9855779833E+00
          0                 3           2             4    7     1      -0.5384588384E-03       4    7    1        -0.2990249284E-01      0.6899055479E-01
          0                 4           1             4    7     1       0.2142577486E-04       4    7    1         0.1223013228E-02      0.2821720098E-02

    ------------------------------------------------
       NWT REQUIRED            4 OUTER ITERATIONS 
       AND A TOTAL OF          7 INNER ITERATIONS.
    ------------------------------------------------

 NO OUTPUT CONTROL FOR STRESS PERIOD   33   TIME STEP    7
 
 SOLVING FOR HEAD 
                                                   Max.-Head-Change                         Max.-Flux-Residual
  Residual-Control   Outer-Iter.   Inner-Iter.     Column Row Layer    Maximum-Head-Change  Column Row Layer    Maximum-Flux-Residual          L2-NORM 
          0                 1           2             4    7     1      -0.8038879685E-01       4    7    1        -0.4223742878E+01      0.9801592696E+01
          0                 2           2             4    7     1       0.7819496527E-02       4    7    1         0.4223647187E+00      0.9801879924E+00
          0                 3           2             4    7     1      -0.5324801115E-03       4    7    1        -0.2956563362E-01      0.6861325127E-01
          0                 4           1             4    7     1       0.2118787577E-04       4    7    1         0.1209235677E-02      0.2806286200E-02

    ------------------------------------------------
       NWT REQUIRED            4 OUTER ITERATIONS 
       AND A TOTAL OF          7 INNER ITERATIONS.
    ------------------------------------------------

 NO OUTPUT CONTROL FOR STRESS PERIOD   33   TIME STEP    8
 
 SOLVING FOR HEAD 
                                                   Max.-Head-Change                         Max.-Flux-Residual
  Residual-Control   Outer-Iter.   Inner-Iter.     Column Row Layer    Maximum-Head-Change  Column Row Layer    Maximum-Flux-Residual          L2-NORM 
          0                 1           2             4    7     1      -0.7950892773E-01       4    7    1        -0.4176844715E+01      0.9748410869E+01
          0                 2           2             4    7     1       0.7733912913E-02       4    7    1         0.4176751859E+00      0.9748342606E+00
          0                 3           2             4    7     1      -0.5266521438E-03       4    7    1        -0.2923736349E-01      0.6823848860E-01
          0                 4           1             4    7     1       0.2095597585E-04       4    7    1         0.1195809424E-02      0.2790959645E-02

    ------------------------------------------------
       NWT REQUIRED            4 OUTER ITERATIONS 
       AND A TOTAL OF          7 INNER ITERATIONS.
    ------------------------------------------------

 NO OUTPUT CONTROL FOR STRESS PERIOD   33   TIME STEP    9
 
 SOLVING FOR HEAD 
                                                   Max.-Head-Change                         Max.-Flux-Residual
  Residual-Control   Outer-Iter.   Inner-Iter.     Column Row Layer    Maximum-Head-Change  Column Row Layer    Maximum-Flux-Residual          L2-NORM 
          0                 1           2             4    7     1      -0.7865083290E-01       4    7    1        -0.4131120129E+01      0.9696167729E+01
          0                 2           2             4    7     1       0.7650447672E-02       4    7    1         0.4131029991E+00      0.9696100778E+00
          0                 3           2             4    7     1      -0.5209684315E-03       4    7    1        -0.2891730771E-01      0.6787279355E-01
          0                 4           1             4    7     1       0.2072981586E-04       4    7    1         0.1182719142E-02      0.2776000388E-02

    ------------------------------------------------
       NWT REQUIRED            4 OUTER ITERATIONS 
       AND A TOTAL OF          7 INNER ITERATIONS.
    ------------------------------------------------

 NO OUTPUT CONTROL FOR STRESS PERIOD   33   TIME STEP   10
 
 SOLVING FOR HEAD 
                                                   Max.-Head-Change                         Max.-Flux-Residual
  Residual-Control   Outer-Iter.   Inner-Iter.     Column Row Layer    Maximum-Head-Change  Column Row Layer    Maximum-Flux-Residual          L2-NORM 
          0                 1           2             4    7     1      -0.7781384157E-01       4    7    1        -0.4086532748E+01      0.9644942873E+01
          0                 2           2             4    7     1       0.7569035063E-02       4    7    1         0.4086445216E+00      0.9644877179E+00
          0                 3           2             4    7     1      -0.5154244973E-03       4    7    1        -0.2860521170E-01      0.6751422559E-01
          0                 4           1             4    7     1       0.2050921779E-04       4    7    1         0.1169954410E-02      0.2761335118E-02

    ------------------------------------------------
       NWT REQUIRED            4 OUTER ITERATIONS 
       AND A TOTAL OF          7 INNER ITERATIONS.
    ------------------------------------------------

 NO OUTPUT CONTROL FOR STRESS PERIOD   33   TIME STEP   11
 
 SOLVING FOR HEAD 
                                                   Max.-Head-Change                         Max.-Flux-Residual
  Residual-Control   Outer-Iter.   Inner-Iter.     Column Row Layer    Maximum-Head-Change  Column Row Layer    Maximum-Flux-Residual          L2-NORM 
          0                 1           2             4    7     1      -0.7699727030E-01       4    7    1        -0.4043045907E+01      0.9594699375E+01
          0                 2           2             4    7     1       0.7480051158E-02       4    7    1         0.4036297309E+00      0.9594130290E+00
          0                 3           2             4    7     1      -0.5093649277E-03       4    7    1        -0.2825416974E-01      0.6715899645E-01
          0                 4           1             4    7     1       0.2026810191E-04       4    7    1         0.1155596797E-02      0.2746806436E-02

    ------------------------------------------------
       NWT REQUIRED            4 OUTER ITERATIONS 
       AND A TOTAL OF          7 INNER ITERATIONS.
    ------------------------------------------------

 NO OUTPUT CONTROL FOR STRESS PERIOD   33   TIME STEP   12
 
 SOLVING FOR HEAD 
                                                   Max.-Head-Change                         Max.-Flux-Residual
  Residual-Control   Outer-Iter.   Inner-Iter.     Column Row Layer    Maximum-Head-Change  Column Row Layer    Maximum-Flux-Residual          L2-NORM 
          0                 1           2             4    7     1      -0.7623174823E-01       4    7    1        -0.4001127317E+01      0.9545439933E+01
          0                 2           2             4    7     1       0.7415152548E-02       4    7    1         0.4001048119E+00      0.9545376848E+00
          0                 3           2             4    7     1      -0.5049455505E-03       4    7    1        -0.2800742386E-01      0.6681772572E-01
          0                 4           1             4    7     1       0.2009225072E-04       4    7    1         0.1145504874E-02      0.2732849688E-02

    ------------------------------------------------
       NWT REQUIRED            4 OUTER ITERATIONS 
       AND A TOTAL OF          7 INNER ITERATIONS.
    ------------------------------------------------

 NO OUTPUT CONTROL FOR STRESS PERIOD   33   TIME STEP   13
 
 SOLVING FOR HEAD 
                                                   Max.-Head-Change                         Max.-Flux-Residual
  Residual-Control   Outer-Iter.   Inner-Iter.     Column Row Layer    Maximum-Head-Change  Column Row Layer    Maximum-Flux-Residual          L2-NORM 
          0                 1           2             4    7     1      -0.7547364948E-01       4    7    1        -0.3960843747E+01      0.9497148928E+01
          0                 2           2             4    7     1       0.7341413204E-02       4    7    1         0.3960766579E+00      0.9497087015E+00
          0                 3           2             4    7     1      -0.4999241458E-03       4    7    1        -0.2772545105E-01      0.6647968995E-01
          0                 4           1             4    7     1       0.1989244469E-04       4    7    1         0.1133972185E-02      0.2719022716E-02

    ------------------------------------------------
       NWT REQUIRED            4 OUTER ITERATIONS 
       AND A TOTAL OF          7 INNER ITERATIONS.
    ------------------------------------------------

 NO OUTPUT CONTROL FOR STRESS PERIOD   33   TIME STEP   14
 
 SOLVING FOR HEAD 
                                                   Max.-Head-Change                         Max.-Flux-Residual
  Residual-Control   Outer-Iter.   Inner-Iter.     Column Row Layer    Maximum-Head-Change  Column Row Layer    Maximum-Flux-Residual          L2-NORM 
          0                 1           2             4    7     1      -0.7473208871E-01       4    7    1        -0.3921447605E+01      0.9449736214E+01
          0                 2           2             4    7     1       0.7269282449E-02       4    7    1         0.3921372396E+00      0.9449675378E+00
          0                 3           2             4    7     1      -0.4950122806E-03       4    7    1        -0.2744968979E-01      0.6614780875E-01
          0                 4           1             4    7     1       0.1969699729E-04       4    7    1         0.1122693557E-02      0.2705449160E-02

    ------------------------------------------------
       NWT REQUIRED            4 OUTER ITERATIONS 
       AND A TOTAL OF          7 INNER ITERATIONS.
    ------------------------------------------------

 NO OUTPUT CONTROL FOR STRESS PERIOD   33   TIME STEP   15
 
 SOLVING FOR HEAD 
                                                   Max.-Head-Change                         Max.-Flux-Residual
  Residual-Control   Outer-Iter.   Inner-Iter.     Column Row Layer    Maximum-Head-Change  Column Row Layer    Maximum-Flux-Residual          L2-NORM 
          0                 1           2             4    7     1      -0.7400666192E-01       4    7    1        -0.3882917178E+01      0.9403178791E+01
          0                 2           2             4    7     1       0.7198720989E-02       4    7    1         0.3882843857E+00      0.9403119017E+00
          0                 3           2             4    7     1      -0.4902072792E-03       4    7    1        -0.2717998811E-01      0.6582191264E-01
          0                 4           1             4    7     1       0.1950580166E-04       4    7    1         0.1111662739E-02      0.2692119640E-02

    ------------------------------------------------
       NWT REQUIRED            4 OUTER ITERATIONS 
       AND A TOTAL OF          7 INNER ITERATIONS.
    ------------------------------------------------

 NO OUTPUT CONTROL FOR STRESS PERIOD   33   TIME STEP   16
 
 SOLVING FOR HEAD 
                                                   Max.-Head-Change                         Max.-Flux-Residual
  Residual-Control   Outer-Iter.   Inner-Iter.     Column Row Layer    Maximum-Head-Change  Column Row Layer    Maximum-Flux-Residual          L2-NORM 
          0                 1           2             4    7     1      -0.7329681246E-01       4    7    1        -0.3845222376E+01      0.9357456880E+01
          0                 2           2             4    7     1       0.7129674684E-02       4    7    1         0.3845150879E+00      0.9357398137E+00
          0                 3           2             4    7     1      -0.4855054555E-03       4    7    1        -0.2691613542E-01      0.6550186529E-01
          0                 4           1             4    7     1       0.1931871217E-04       4    7    1         0.1100871167E-02      0.2679029356E-02

    ------------------------------------------------
       NWT REQUIRED            4 OUTER ITERATIONS 
       AND A TOTAL OF          7 INNER ITERATIONS.
    ------------------------------------------------

 NO OUTPUT CONTROL FOR STRESS PERIOD   33   TIME STEP   17
 
 SOLVING FOR HEAD 
                                                   Max.-Head-Change                         Max.-Flux-Residual
  Residual-Control   Outer-Iter.   Inner-Iter.     Column Row Layer    Maximum-Head-Change  Column Row Layer    Maximum-Flux-Residual          L2-NORM 
          0                 1           2             4    7     1      -0.7260214787E-01       4    7    1        -0.3808342519E+01      0.9312536946E+01
          0                 2           2             4    7     1       0.7062105358E-02       4    7    1         0.3808272783E+00      0.9312479197E+00
          0                 3           2             4    7     1      -0.4809042099E-03       4    7    1        -0.2665798698E-01      0.6518743044E-01
          0                 4           1             4    7     1       0.1913562440E-04       4    7    1         0.1090312896E-02      0.2666168683E-02

    ------------------------------------------------
       NWT REQUIRED            4 OUTER ITERATIONS 
       AND A TOTAL OF          7 INNER ITERATIONS.
    ------------------------------------------------

 NO OUTPUT CONTROL FOR STRESS PERIOD   33   TIME STEP   18
 
 SOLVING FOR HEAD 
                                                   Max.-Head-Change                         Max.-Flux-Residual
  Residual-Control   Outer-Iter.   Inner-Iter.     Column Row Layer    Maximum-Head-Change  Column Row Layer    Maximum-Flux-Residual          L2-NORM 
          0                 1           2             4    7     1      -0.7192204329E-01       4    7    1        -0.3772243755E+01      0.9268404369E+01
          0                 2           2             4    7     1       0.6995952236E-02       4    7    1         0.3772175718E+00      0.9268347587E+00
          0                 3           2             4    7     1      -0.4763994029E-03       4    7    1        -0.2640530581E-01      0.6487850851E-01
          0                 4           1             4    7     1       0.1895637384E-04       4    7    1         0.1079978216E-02      0.2653534618E-02

    ------------------------------------------------
       NWT REQUIRED            4 OUTER ITERATIONS 
       AND A TOTAL OF          7 INNER ITERATIONS.
    ------------------------------------------------

 NO OUTPUT CONTROL FOR STRESS PERIOD   33   TIME STEP   19
 
 SOLVING FOR HEAD 
                                                   Max.-Head-Change                         Max.-Flux-Residual
  Residual-Control   Outer-Iter.   Inner-Iter.     Column Row Layer    Maximum-Head-Change  Column Row Layer    Maximum-Flux-Residual          L2-NORM 
          0                 1           2             4    7     1      -0.7125624599E-01       4    7    1        -0.3736912502E+01      0.9225032950E+01
          0                 2           2             4    7     1       0.6931190735E-02       4    7    1         0.3736846107E+00      0.9224977099E+00
          0                 3           2             4    7     1      -0.4719893607E-03       4    7    1        -0.2615799687E-01      0.6457491405E-01
          0                 4           1             4    7     1       0.1878089416E-04       4    7    1         0.1069863253E-02      0.2641117658E-02

    ------------------------------------------------
       NWT REQUIRED            4 OUTER ITERATIONS 
       AND A TOTAL OF          7 INNER ITERATIONS.
    ------------------------------------------------

 NO OUTPUT CONTROL FOR STRESS PERIOD   33   TIME STEP   20
 
 SOLVING FOR HEAD 
                                                   Max.-Head-Change                         Max.-Flux-Residual
  Residual-Control   Outer-Iter.   Inner-Iter.     Column Row Layer    Maximum-Head-Change  Column Row Layer    Maximum-Flux-Residual          L2-NORM 
          0                 1           2             4    7     1      -0.7060405007E-01       4    7    1        -0.3702310567E+01      0.9182412128E+01
          0                 2           2             4    7     1       0.6867752197E-02       4    7    1         0.3702245757E+00      0.9182357194E+00
          0                 3           2             4    7     1      -0.4676694086E-03       4    7    1        -0.2591579281E-01      0.6427657264E-01
          0                 4           1             4    7     1       0.1860899944E-04       4    7    1         0.1059957104E-02      0.2628915337E-02

    ------------------------------------------------
       NWT REQUIRED            4 OUTER ITERATIONS 
       AND A TOTAL OF          7 INNER ITERATIONS.
    ------------------------------------------------

 NO OUTPUT CONTROL FOR STRESS PERIOD   33   TIME STEP   21
 
 SOLVING FOR HEAD 
                                                   Max.-Head-Change                         Max.-Flux-Residual
  Residual-Control   Outer-Iter.   Inner-Iter.     Column Row Layer    Maximum-Head-Change  Column Row Layer    Maximum-Flux-Residual          L2-NORM 
          0                 1           2             4    7     1      -0.6996526997E-01       4    7    1        -0.3668428340E+01      0.9140516955E+01
          0                 2           2             4    7     1       0.6805618573E-02       4    7    1         0.3668365061E+00      0.9140462914E+00
          0                 3           2             4    7     1      -0.4634383175E-03       4    7    1        -0.2567862640E-01      0.6398331310E-01
          0                 4           1             4    7     1       0.1844064075E-04       4    7    1         0.1050257015E-02      0.2616921168E-02

    ------------------------------------------------
       NWT REQUIRED            4 OUTER ITERATIONS 
       AND A TOTAL OF          7 INNER ITERATIONS.
    ------------------------------------------------

 NO OUTPUT CONTROL FOR STRESS PERIOD   33   TIME STEP   22
 
 SOLVING FOR HEAD 
                                                   Max.-Head-Change                         Max.-Flux-Residual
  Residual-Control   Outer-Iter.   Inner-Iter.     Column Row Layer    Maximum-Head-Change  Column Row Layer    Maximum-Flux-Residual          L2-NORM 
          0                 1           2             4    7     1      -0.6933929945E-01       4    7    1        -0.3635232620E+01      0.9099324223E+01
          0                 2           2             4    7     1       0.6744730897E-02       4    7    1         0.3635170822E+00      0.9099271068E+00
          0                 3           2             4    7     1      -0.4592920709E-03       4    7    1        -0.2544626521E-01      0.6369497002E-01
          0                 4           1             4    7     1       0.1827565784E-04       4    7    1         0.1040753430E-02      0.2605129289E-02

    ------------------------------------------------
       NWT REQUIRED            4 OUTER ITERATIONS 
       AND A TOTAL OF          7 INNER ITERATIONS.
    ------------------------------------------------

 NO OUTPUT CONTROL FOR STRESS PERIOD   33   TIME STEP   23
 
 SOLVING FOR HEAD 
                                                   Max.-Head-Change                         Max.-Flux-Residual
  Residual-Control   Outer-Iter.   Inner-Iter.     Column Row Layer    Maximum-Head-Change  Column Row Layer    Maximum-Flux-Residual          L2-NORM 
          0                 1           2             4    7     1      -0.6872575221E-01       4    7    1        -0.3602703011E+01      0.9058819743E+01
          0                 2           2             4    7     1       0.6685051595E-02       4    7    1         0.3602642645E+00      0.9058767418E+00
          0                 3           2             4    7     1      -0.4552281112E-03       4    7    1        -0.2521856653E-01      0.6341144218E-01
          0                 4           1             4    7     1       0.1811394869E-04       4    7    1         0.1031440544E-02      0.2593530642E-02

    ------------------------------------------------
       NWT REQUIRED            4 OUTER ITERATIONS 
       AND A TOTAL OF          7 INNER ITERATIONS.
    ------------------------------------------------

 NO OUTPUT CONTROL FOR STRESS PERIOD   33   TIME STEP   24
 
 SOLVING FOR HEAD 
                                                   Max.-Head-Change                         Max.-Flux-Residual
  Residual-Control   Outer-Iter.   Inner-Iter.     Column Row Layer    Maximum-Head-Change  Column Row Layer    Maximum-Flux-Residual          L2-NORM 
          0                 1           2             4    7     1      -0.6812447528E-01       4    7    1        -0.3570831063E+01      0.9018993558E+01
          0                 2           2             4    7     1       0.6626565790E-02       4    7    1         0.3570772081E+00      0.9018942062E+00
          0                 3           2             4    7     1      -0.4512454246E-03       4    7    1        -0.2499547118E-01      0.6313266458E-01
          0                 4           1             4    7     1       0.1795547417E-04       4    7    1         0.1022315938E-02      0.2582130087E-02

    ------------------------------------------------
       NWT REQUIRED            4 OUTER ITERATIONS 
       AND A TOTAL OF          7 INNER ITERATIONS.
    ------------------------------------------------

 NO OUTPUT CONTROL FOR STRESS PERIOD   33   TIME STEP   25
 
 SOLVING FOR HEAD 
                                                   Max.-Head-Change                         Max.-Flux-Residual
  Residual-Control   Outer-Iter.   Inner-Iter.     Column Row Layer    Maximum-Head-Change  Column Row Layer    Maximum-Flux-Residual          L2-NORM 
          0                 1           2             4    7     1      -0.6753495596E-01       4    7    1        -0.3539589087E+01      0.8979826384E+01
          0                 2           2             4    7     1       0.6569223613E-02       4    7    1         0.3539531444E+00      0.8979776794E+00
          0                 3           2             4    7     1      -0.4473406154E-03       4    7    1        -0.2477678535E-01      0.6285851548E-01
          0                 4           1             4    7     1       0.1780009796E-04       4    7    1         0.1013371672E-02      0.2570917632E-02

    ------------------------------------------------
       NWT REQUIRED            4 OUTER ITERATIONS 
       AND A TOTAL OF          7 INNER ITERATIONS.
    ------------------------------------------------

 NO OUTPUT CONTROL FOR STRESS PERIOD   33   TIME STEP   26
 
 SOLVING FOR HEAD 
                                                   Max.-Head-Change                         Max.-Flux-Residual
  Residual-Control   Outer-Iter.   Inner-Iter.     Column Row Layer    Maximum-Head-Change  Column Row Layer    Maximum-Flux-Residual          L2-NORM 
          0                 1           2             4    7     1      -0.6695679888E-01       4    7    1        -0.3508955814E+01      0.8941298341E+01
          0                 2           2             4    7     1       0.6512986609E-02       4    7    1         0.3508899466E+00      0.8941248568E+00
          0                 3           2             4    7     1      -0.4435110654E-03       4    7    1        -0.2456236020E-01      0.6258880646E-01
          0                 4           1             4    7     1       0.1764771679E-04       4    7    1         0.1004601680E-02      0.2559885853E-02

    ------------------------------------------------
       NWT REQUIRED            4 OUTER ITERATIONS 
       AND A TOTAL OF          7 INNER ITERATIONS.
    ------------------------------------------------

 NO OUTPUT CONTROL FOR STRESS PERIOD   33   TIME STEP   27
 
 SOLVING FOR HEAD 
                                                   Max.-Head-Change                         Max.-Flux-Residual
  Residual-Control   Outer-Iter.   Inner-Iter.     Column Row Layer    Maximum-Head-Change  Column Row Layer    Maximum-Flux-Residual          L2-NORM 
          0                 1           2             4    7     1      -0.6638965977E-01       4    7    1        -0.3478912651E+01      0.8903393501E+01
          0                 2           2             4    7     1       0.6457821291E-02       4    7    1         0.3478857556E+00      0.8903344578E+00
          0                 3           2             4    7     1      -0.4397544935E-03       4    7    1        -0.2435206553E-01      0.6232347828E-01
          0                 4           1             4    7     1       0.1749823960E-04       4    7    1         0.9960006330E-03      0.2549033332E-02

    ------------------------------------------------
       NWT REQUIRED            4 OUTER ITERATIONS 
       AND A TOTAL OF          7 INNER ITERATIONS.
    ------------------------------------------------

 NO OUTPUT CONTROL FOR STRESS PERIOD   33   TIME STEP   28
 
 SOLVING FOR HEAD 
                                                   Max.-Head-Change                         Max.-Flux-Residual
  Residual-Control   Outer-Iter.   Inner-Iter.     Column Row Layer    Maximum-Head-Change  Column Row Layer    Maximum-Flux-Residual          L2-NORM 
          0                 1           2             4    7     1      -0.6583329059E-01       4    7    1        -0.3449446101E+01      0.8866106892E+01
          0                 2           2             4    7     1       0.6403703536E-02       4    7    1         0.3449392221E+00      0.8866058694E+00
          0                 3           2             4    7     1      -0.4360692574E-03       4    7    1        -0.2414580695E-01      0.6206247677E-01
          0                 4           1             4    7     1       0.1735160066E-04       4    7    1         0.9875646442E-03      0.2538358576E-02

    ------------------------------------------------
       NWT REQUIRED            4 OUTER ITERATIONS 
       AND A TOTAL OF          7 INNER ITERATIONS.
    ------------------------------------------------

 NO OUTPUT CONTROL FOR STRESS PERIOD   33   TIME STEP   29
 
 SOLVING FOR HEAD 
                                                   Max.-Head-Change                         Max.-Flux-Residual
  Residual-Control   Outer-Iter.   Inner-Iter.     Column Row Layer    Maximum-Head-Change  Column Row Layer    Maximum-Flux-Residual          L2-NORM 
          0                 1           2             4    7     1      -0.6528725605E-01       4    7    1        -0.3420532687E+01      0.8829417352E+01
          0                 2           2             4    7     1       0.6350591003E-02       4    7    1         0.3420479982E+00      0.8829369886E+00
          0                 3           2             4    7     1      -0.4324524740E-03       4    7    1        -0.2394342008E-01      0.6180565352E-01
          0                 4           1             4    7     1       0.1720768540E-04       4    7    1         0.9792870201E-03      0.2527853748E-02

    ------------------------------------------------
       NWT REQUIRED            4 OUTER ITERATIONS 
       AND A TOTAL OF          7 INNER ITERATIONS.
    ------------------------------------------------

 NO OUTPUT CONTROL FOR STRESS PERIOD   33   TIME STEP   30



 STREAM LISTING     PERIOD     33   STEP       30

 LAYER ROW COL. STREAM  RCH.  FLOW INTO     FLOW TO   FLOW OUT OF   OVRLND.     DIRECT     STREAM       STREAM     STREAM     STREAM   STREAMBED  STREAMBED
                SEG.NO.  NO.  STRM. RCH.    AQUIFER    STRM. RCH.    RUNOFF     PRECIP       ET          HEAD       DEPTH      WIDTH   CONDCTNC.   GRADIENT

   1    1    1     1     1    1.9000E+01  2.1427E-01   1.8786E+01  0.000E+00  0.000E+00  0.000E+00  1.09413E+03  1.082E+00  1.166E+01  5.249E-02  1.361E+00
   1    2    2     1     2    1.8786E+01  3.3054E-01   1.8455E+01  0.000E+00  0.000E+00  0.000E+00  1.08914E+03  1.077E+00  1.158E+01  8.107E-02  1.359E+00
   1    3    3     1     3    1.8455E+01  2.8064E-01   1.8175E+01  0.000E+00  0.000E+00  0.000E+00  1.08349E+03  1.072E+00  1.149E+01  6.892E-02  1.357E+00
   1    3    4     1     4    1.8175E+01  2.5740E-01   1.7917E+01  0.000E+00  0.000E+00  0.000E+00  1.07848E+03  1.068E+00  1.140E+01  6.328E-02  1.356E+00
   1    4    5     2     1    1.5917E+01  3.0542E-01   1.5612E+01  0.000E+00  0.000E+00  0.000E+00  1.07285E+03  9.157E-01  1.200E+01  7.800E-02  1.305E+00
   1    5    6     2     2    1.5612E+01  2.3438E-01   1.5377E+01  0.000E+00  0.000E+00  0.000E+00  1.06742E+03  9.063E-01  1.200E+01  6.000E-02  1.302E+00
   1    6    6     2     3    1.5377E+01  2.3388E-01   1.5143E+01  0.000E+00  0.000E+00  0.000E+00  1.06269E+03  8.980E-01  1.200E+01  6.000E-02  1.299E+00
   1    7    6     2     4    1.5143E+01  2.3338E-01   1.4910E+01  0.000E+00  0.000E+00  0.000E+00  1.05797E+03  8.897E-01  1.200E+01  6.000E-02  1.297E+00
   1    8    6     2     5    1.4910E+01  2.3289E-01   1.4677E+01  0.000E+00  0.000E+00  0.000E+00  1.05324E+03  8.814E-01  1.200E+01  6.000E-02  1.294E+00
   1    3    5     3     1    2.0000E+00  2.8252E-01   1.7175E+00  0.000E+00  0.000E+00  0.000E+00  1.07555E+03  1.909E+00  9.636E+00  7.227E-02  1.955E+00
   1    3    6     3     2    1.7175E+00  2.4905E-01   1.4684E+00  0.000E+00  0.000E+00  0.000E+00  1.07264E+03  1.727E+00  8.909E+00  6.682E-02  1.864E+00
   1    3    7     3     3    1.4684E+00  1.9718E-01   1.2712E+00  0.000E+00  0.000E+00  0.000E+00  1.06987E+03  1.555E+00  8.218E+00  5.547E-02  1.777E+00
   1    4    8     3     4    1.2712E+00  2.2567E-01   1.0456E+00  0.000E+00  0.000E+00  0.000E+00  1.06682E+03  1.364E+00  7.455E+00  6.709E-02  1.682E+00
   1    5    8     3     5    1.0456E+00  1.5790E-01   8.8768E-01  0.000E+00  0.000E+00  0.000E+00  1.06362E+03  1.164E+00  6.655E+00  4.991E-02  1.582E+00
   1    6    8     3     6    8.8768E-01  5.5980E-02   8.3170E-01  0.000E+00  0.000E+00  0.000E+00  1.06158E+03  1.036E+00  6.145E+00  1.844E-02  1.518E+00
   1    5   10     4     1    1.0000E+01  9.0919E-02   9.9091E+00  0.000E+00  0.000E+00  0.000E+00  1.07836E+03  6.368E-01  1.000E+01  2.500E-02  1.212E+00
   1    5    9     4     2    9.9091E+00  1.8158E-01   9.7275E+00  0.000E+00  0.000E+00  0.000E+00  1.07154E+03  6.315E-01  1.000E+01  5.000E-02  1.211E+00
   1    6    8     4     3    9.7275E+00  1.2689E-01   9.6006E+00  0.000E+00  0.000E+00  0.000E+00  1.06381E+03  6.256E-01  1.000E+01  3.500E-02  1.209E+00
   1    6    8     5     1    1.0432E+01  2.2686E-01   1.0205E+01  0.000E+00  0.000E+00  0.000E+00  1.05868E+03  6.790E-01  1.542E+01  6.166E-02  1.226E+00
   1    7    7     5     2    1.0205E+01  2.7894E-01   9.9265E+00  0.000E+00  0.000E+00  0.000E+00  1.05417E+03  6.732E-01  1.519E+01  7.594E-02  1.224E+00
   1    8    7     5     3    9.9265E+00  1.9221E-01   9.7343E+00  0.000E+00  0.000E+00  0.000E+00  1.04992E+03  6.676E-01  1.497E+01  5.241E-02  1.223E+00
   1    8    6     5     4    9.7343E+00  1.3577E-01   9.5985E+00  0.000E+00  0.000E+00  0.000E+00  1.04691E+03  6.637E-01  1.482E+01  3.706E-02  1.221E+00
   1    9    6     6     1    2.4276E+01  2.5176E-01   2.4024E+01  0.000E+00  0.000E+00  0.000E+00  1.04392E+03  1.196E+00  1.200E+01  6.000E-02  1.399E+00
   1   10    7     6     2    2.4024E+01  2.5131E-01   2.3773E+01  0.000E+00  0.000E+00  0.000E+00  1.03937E+03  1.188E+00  1.200E+01  6.000E-02  1.396E+00
   1   11    7     6     3    2.3773E+01  2.5086E-01   2.3522E+01  0.000E+00  0.000E+00  0.000E+00  1.03482E+03  1.181E+00  1.200E+01  6.000E-02  1.394E+00
   1   12    7     6     4    2.3522E+01  2.5041E-01   2.3271E+01  0.000E+00  0.000E+00  0.000E+00  1.03026E+03  1.173E+00  1.200E+01  6.000E-02  1.391E+00
   1   13    7     6     5    2.3271E+01  6.7758E-03   2.3265E+01  0.000E+00  0.000E+00  0.000E+00  1.02708E+03  1.170E+00  1.200E+01  2.400E-02  9.411E-02
   1   14    9     7     1    1.5000E+02  1.3511E+00   1.4865E+02  0.000E+00  0.000E+00  0.000E+00  1.03987E+03  2.288E+00  5.529E+01  5.593E-01  8.053E-01
   1   13    8     7     2    1.4865E+02  1.9123E+00   1.4674E+02  0.000E+00  0.000E+00  0.000E+00  1.03478E+03  2.279E+00  5.526E+01  6.148E-01  1.037E+00
   1   13    7     7     3    1.4674E+02  1.6152E+00   1.4512E+02  0.000E+00  0.000E+00  0.000E+00  1.02969E+03  2.270E+00  5.521E+01  5.584E-01  9.642E-01
   1   13    6     8     1    1.6839E+02  1.0547E+00   1.6733E+02  0.000E+00  0.000E+00  0.000E+00  1.02481E+03  2.938E+00  4.260E+01  4.341E-01  8.098E-01
   1   13    5     8     2    1.6733E+02  2.9907E-01   1.6703E+02  0.000E+00  0.000E+00  0.000E+00  1.01856E+03  2.934E+00  4.254E+01  4.335E-01  2.300E-01
   1   13    4     8     3    1.6703E+02 -2.0249E+00   1.6906E+02  0.000E+00  0.000E+00  0.000E+00  1.01231E+03  2.939E+00  4.262E+01  4.343E+00 -1.554E-01
   1   13    3     8     4    1.6906E+02 -3.4468E+00   1.7250E+02  0.000E+00  0.000E+00  0.000E+00  1.00608E+03  2.957E+00  4.288E+01  4.370E+00 -2.629E-01
   1   13    2     8     5    1.7250E+02 -2.5274E+00   1.7503E+02  0.000E+00  0.000E+00  0.000E+00  9.99852E+02  2.977E+00  4.316E+01  4.398E+00 -1.915E-01
   1   13    1     8     6    1.7503E+02 -1.9699E+00   1.7700E+02  0.000E+00  0.000E+00  0.000E+00  9.94866E+02  2.991E+00  4.337E+01  2.652E+00 -2.476E-01





UNSATURATED ZONE PACKAGE VOLUMETRIC BUDGET FOR  TIME STEP    30 STRESS PERIOD   33
  ------------------------------------------------------------------------------



     CUMULATIVE VOLUMES      L**3       RATES FOR THIS TIME STEP      L**3/T
     ------------------                 ------------------------

           IN:                                      IN:
           ---                                      ---
        INFILTRATION =  1536022193.6387          INFILTRATION =          52.8178

          OUT:                                     OUT:
          ----                                     ----
              UZF ET =  1445615656.4392                UZF ET =          52.8575
        UZF RECHARGE =      884207.6777          UZF RECHARGE =           0.0002

            IN - OUT =    89522329.5217              IN - OUT =      -3.9893E-02

          STORAGE:                                 STORAGE:
          --------                                 --------
      STORAGE CHANGE =    89523258.8379        STORAGE CHANGE =      -3.9893E-02

 PERCENT DISCREPANCY IS DIFFERENCE BETWEEN IN-OUT MINUS CHANGE IN STORAGE
 DIVIDED BY THE AVERAGE OF IN AND OUT TIMES 100

 PERCENT DISCREPANCY =          -0.00     PERCENT DISCREPANCY =           0.00






1
  VOLUMETRIC BUDGET FOR AGRICULTURAL FIELDS AT TIME STEP   30, STRESS PERIOD  33
  ------------------------------------------------------------------------------

     CUMULATIVE VOLUMES      L**3       RATES FOR THIS TIME STEP      L**3/T
     ------------------                 ------------------------

           IN:                                      IN:
           ---                                      ---
               AG WELLS  =  1165013632.0000                 AG WELLS  =          48.4103
      DIVERSION SEGMENTS =           0.0000        DIVERSION SEGMENTS =           0.0000
           GW IRRIGATION =           0.0000             GW IRRIGATION =           0.0000
           SW IRRIGATION =           0.0000             SW IRRIGATION =           0.0000
        SYSTEM LOSSES GW =           0.0000          SYSTEM LOSSES GW =           0.0000
        SYSTEM LOSSES SW =           0.0000          SYSTEM LOSSES SW =           0.0000

                TOTAL IN =  1165013632.0000                  TOTAL IN =          48.4103

          OUT:                                     OUT:
          ----                                     ----
               AG WELLS  =           0.0000                 AG WELLS  =           0.0000
      DIVERSION SEGMENTS =           0.0000        DIVERSION SEGMENTS =           0.0000
           GW IRRIGATION =  1165013632.0000             GW IRRIGATION =          48.4103
           SW IRRIGATION =           0.0000             SW IRRIGATION =           0.0000
        SYSTEM LOSSES GW =           0.0000          SYSTEM LOSSES GW =           0.0000
        SYSTEM LOSSES SW =           0.0000          SYSTEM LOSSES SW =           0.0000

               TOTAL OUT =  1165013632.0000                 TOTAL OUT =          48.4103

                IN - OUT =           0.0000                  IN - OUT =           0.0000

     PERCENT DISCREPANCY =           0.00         PERCENT DISCREPANCY =           0.00



1
  VOLUMETRIC BUDGET FOR ENTIRE MODEL AT END OF TIME STEP   30, STRESS PERIOD  33
  ------------------------------------------------------------------------------

     CUMULATIVE VOLUMES      L**3       RATES FOR THIS TIME STEP      L**3/T
     ------------------                 ------------------------

           IN:                                      IN:
           ---                                      ---
             STORAGE     =  1485379456.0000               STORAGE     =          46.4787
       CONSTANT HEAD     =           0.0000         CONSTANT HEAD     =           0.0000
     HEAD DEP BOUNDS     =    24067226.0000       HEAD DEP BOUNDS     =           0.2868
      STREAM LEAKAGE     =  1033597632.0000        STREAM LEAKAGE     =          11.9679
        UZF RECHARGE     =      884207.5625          UZF RECHARGE     =       2.0126E-04
               GW ET     =           0.0000                 GW ET     =           0.0000
     SURFACE LEAKAGE     =           0.0000       SURFACE LEAKAGE     =           0.0000
           AG WELLS      =           0.0000             AG WELLS      =           0.0000

                TOTAL IN =  2543928576.0000                  TOTAL IN =          58.7336

          OUT:                                     OUT:
          ----                                     ----
             STORAGE     =   467462592.0000               STORAGE     =       6.5287E-02
       CONSTANT HEAD     =           0.0000         CONSTANT HEAD     =           0.0000
     HEAD DEP BOUNDS     =    24672610.0000       HEAD DEP BOUNDS     =           0.2891
      STREAM LEAKAGE     =   869436736.0000        STREAM LEAKAGE     =           9.9690
        UZF RECHARGE     =           0.0000          UZF RECHARGE     =           0.0000
               GW ET     =    17343536.0000                 GW ET     =           0.0000
     SURFACE LEAKAGE     =           0.0000       SURFACE LEAKAGE     =           0.0000
           AG WELLS      =  1165013632.0000             AG WELLS      =          48.4103

               TOTAL OUT =  2543929088.0000                 TOTAL OUT =          58.7337

                IN - OUT =        -512.0000                  IN - OUT =      -1.6022E-04

     PERCENT DISCREPANCY =          -0.00         PERCENT DISCREPANCY =          -0.00






         TIME SUMMARY AT END OF TIME STEP   30 IN STRESS PERIOD   33
                    SECONDS     MINUTES      HOURS       DAYS        YEARS
                    -----------------------------------------------------------
   TIME STEP LENGTH  87667.      1461.1      24.352      1.0147     2.77799E-03
 STRESS PERIOD TIME 2.63000E+06  43833.      730.56      30.440     8.33397E-02
         TOTAL TIME 8.42463E+07 1.40410E+06  23402.      975.07      2.6696    
1
1
                            STRESS PERIOD NO.   34, LENGTH =   2630000.    
                            -----------------------------------------------

                              NUMBER OF TIME STEPS =    30

                               MULTIPLIER FOR DELT =     1.000

                            INITIAL TIME STEP SIZE =   87666.66    

 REUSING NON-PARAMETER GHB CELLS FROM LAST STRESS PERIOD

      2 GHB CELLS

 REUSING STREAM SEGMENT DATA FROM LAST STRESS PERIOD



            AREAL INFILTRATION RATE
 READING ON UNIT   19 WITH FORMAT: (10F4.0)            

            1           2           3           4           5           6           7           8           9          10
 ........................................................................................................................
   1   1.2000E-09   0.000       0.000       0.000       0.000       0.000       0.000       0.000       0.000       0.000    
   2   2.1000E-09  2.0000E-09  8.0000E-10  8.5000E-09   0.000       0.000       0.000       0.000       0.000       0.000    
   3   5.0000E-10  1.1000E-09  8.8000E-09  5.5000E-09   0.000       0.000       0.000       0.000       0.000       0.000    
   4   8.5000E-09  1.1000E-09  1.1000E-09  1.1000E-09  2.0000E-09   0.000       0.000       0.000       0.000       0.000    
   5   8.5000E-09  1.1000E-09  1.1000E-09  1.1000E-09  1.1000E-09   0.000       0.000       0.000       0.000       0.000    
   6   8.5000E-09  5.2000E-09  2.1000E-09  1.1000E-09  1.5000E-09   0.000       0.000       0.000       0.000       0.000    
   7   8.5000E-09  5.2000E-09  2.1000E-09  1.2000E-09  2.0000E-09   0.000       0.000       0.000       0.000       0.000    
   8   5.0000E-10  5.2000E-09  2.1000E-09  1.2000E-09  5.0000E-09   0.000       0.000       0.000       0.000       0.000    
   9   5.0000E-10  5.2000E-09  2.1000E-09  1.2000E-09  5.0000E-09   0.000       0.000       0.000       0.000       0.000    
  10   5.0000E-10  5.2000E-09  2.1000E-09  1.2000E-09  5.8000E-09   0.000       0.000       0.000       0.000       0.000    
  11   1.0000E-10  1.1000E-09  1.1000E-09  1.2000E-09  5.0000E-09   0.000       0.000       0.000       0.000       0.000    
  12   1.1000E-09  1.1000E-09  1.1000E-09  1.1000E-09  2.0000E-09   0.000       0.000       0.000       0.000       0.000    
  13   1.1000E-09  2.2000E-09  2.2000E-09  2.1000E-09  1.0000E-09   0.000       0.000       0.000       0.000       0.000    
  14   2.0000E-10  5.5000E-09  5.5000E-09  5.2000E-09  1.0000E-09   0.000       0.000       0.000       0.000       0.000    
  15    0.000      8.8000E-09  8.8000E-09   0.000       0.000       0.000       0.000       0.000       0.000       0.000    

                  ET RATE =  7.500000E-08

 USING ET EXTINCTION DEPTH FROM PREVIOUS STRESS PERIOD. CURRENT PERIOD IS:      34

 USING EXTINCTION WATER CONTENT FROM PREVIOUS STRESS PERIOD. CURRENT PERIOD IS:      34

 USING AIR ENTRY PRESSURE FROM PREVIOUS STRESS PERIOD. CURRENT PERIOD IS:      34

 USING ROOT PRESSURE HEAD FROM PREVIOUS STRESS PERIOD. CURRENT PERIOD IS:      34

 USING ROOT ACTIVITY FROM PREVIOUS STRESS PERIOD. CURRENT PERIOD IS:      34

 PROCESSING AG STRESS PERIOD DATA

 READING AG STRESS PERIOD DATA

 READING IRRIGATION WELL

 END PROCESSING AG STRESS PERIOD DATA OPTIONS
 
 SOLVING FOR HEAD 
                                                   Max.-Head-Change                         Max.-Flux-Residual
  Residual-Control   Outer-Iter.   Inner-Iter.     Column Row Layer    Maximum-Head-Change  Column Row Layer    Maximum-Flux-Residual          L2-NORM 
          0                 1           2             5    8     1       0.7066874881E-01       5    8    1         0.3845864182E+01      0.1007413121E+02
          0                 2           2             5    8     1      -0.6874034368E-02       5    8    1        -0.3845789213E+00      0.1007390554E+01
          0                 3           2             5    8     1       0.4680952261E-03       5    8    1         0.2692048896E-01      0.7051733383E-01
          0                 4           1             5    8     1      -0.1862799170E-04       5    8    1        -0.1101168411E-02      0.2884407359E-02

    ------------------------------------------------
       NWT REQUIRED            4 OUTER ITERATIONS 
       AND A TOTAL OF          7 INNER ITERATIONS.
    ------------------------------------------------

 NO OUTPUT CONTROL FOR STRESS PERIOD   34   TIME STEP    1
 
 SOLVING FOR HEAD 
                                                   Max.-Head-Change                         Max.-Flux-Residual
  Residual-Control   Outer-Iter.   Inner-Iter.     Column Row Layer    Maximum-Head-Change  Column Row Layer    Maximum-Flux-Residual          L2-NORM 
          0                 1           2             5    8     1       0.6752066883E-01       5    8    1         0.3671527570E+01      0.9753703129E+01
          0                 2           2             5    8     1      -0.6567819410E-02       5    8    1        -0.3671457716E+00      0.9753499535E+00
          0                 3           2             5    8     1       0.4472430507E-03       5    8    1         0.2570016313E-01      0.6827446946E-01
          0                 4           1             5    8     1      -0.1779826443E-04       5    8    1        -0.1051257037E-02      0.2792674723E-02

    ------------------------------------------------
       NWT REQUIRED            4 OUTER ITERATIONS 
       AND A TOTAL OF          7 INNER ITERATIONS.
    ------------------------------------------------

 NO OUTPUT CONTROL FOR STRESS PERIOD   34   TIME STEP    2
 
 SOLVING FOR HEAD 
                                                   Max.-Head-Change                         Max.-Flux-Residual
  Residual-Control   Outer-Iter.   Inner-Iter.     Column Row Layer    Maximum-Head-Change  Column Row Layer    Maximum-Flux-Residual          L2-NORM 
          0                 1           2             5    8     1       0.6456586610E-01       5    8    1         0.3508015531E+01      0.9450725423E+01
          0                 2           2             5    8     1      -0.6280404473E-02       5    8    1        -0.3507950409E+00      0.9450619102E+00
          0                 3           2             5    8     1       0.4276710924E-03       5    8    1         0.2455560702E-01      0.6615428456E-01
          0                 4           1             5    8     1      -0.1701947814E-04       5    8    1        -0.1004444644E-02      0.2705958882E-02

    ------------------------------------------------
       NWT REQUIRED            4 OUTER ITERATIONS 
       AND A TOTAL OF          7 INNER ITERATIONS.
    ------------------------------------------------

 NO OUTPUT CONTROL FOR STRESS PERIOD   34   TIME STEP    3
 
 SOLVING FOR HEAD 
                                                   Max.-Head-Change                         Max.-Flux-Residual
  Residual-Control   Outer-Iter.   Inner-Iter.     Column Row Layer    Maximum-Head-Change  Column Row Layer    Maximum-Flux-Residual          L2-NORM 
          0                 1           2             5    8     1       0.6179061513E-01       5    8    1         0.3354553019E+01      0.9163925871E+01
          0                 2           2             5    8     1      -0.6010454577E-02       5    8    1        -0.3354492276E+00      0.9163760161E+00
          0                 3           2             5    8     1       0.4092884432E-03       5    8    1         0.2348139546E-01      0.6414625472E-01
          0                 4           1             5    8     1      -0.1628801574E-04       5    8    1        -0.9605093474E-03      0.2623833311E-02

    ------------------------------------------------
       NWT REQUIRED            4 OUTER ITERATIONS 
       AND A TOTAL OF          7 INNER ITERATIONS.
    ------------------------------------------------

 NO OUTPUT CONTROL FOR STRESS PERIOD   34   TIME STEP    4
 
 SOLVING FOR HEAD 
                                                   Max.-Head-Change                         Max.-Flux-Residual
  Residual-Control   Outer-Iter.   Inner-Iter.     Column Row Layer    Maximum-Head-Change  Column Row Layer    Maximum-Flux-Residual          L2-NORM 
          0                 1           2             5    6     1       0.5918689707E-01       5    8    1         0.3210398986E+01      0.8892141120E+01
          0                 2           2             5    6     1      -0.5757184419E-02       5    8    1        -0.3210342296E+00      0.8891991624E+00
          0                 3           2             5    6     1       0.3920416752E-03       5    8    1         0.2247234135E-01      0.6224385727E-01
          0                 4           1             5    6     1      -0.1560171927E-04       5    8    1        -0.9192389889E-03      0.2546024617E-02

    ------------------------------------------------
       NWT REQUIRED            4 OUTER ITERATIONS 
       AND A TOTAL OF          7 INNER ITERATIONS.
    ------------------------------------------------

 NO OUTPUT CONTROL FOR STRESS PERIOD   34   TIME STEP    5
 
 SOLVING FOR HEAD 
                                                   Max.-Head-Change                         Max.-Flux-Residual
  Residual-Control   Outer-Iter.   Inner-Iter.     Column Row Layer    Maximum-Head-Change  Column Row Layer    Maximum-Flux-Residual          L2-NORM 
          0                 1           2             5    7     1       0.5711542424E-01       5    6    1         0.3075689089E+01      0.8634314279E+01
          0                 2           2             5    7     1      -0.5555731213E-02       5    6    1        -0.3075633031E+00      0.8634179387E+00
          0                 3           2             5    7     1       0.3783229933E-03       5    6    1         0.2152937549E-01      0.6043915533E-01
          0                 4           1             5    7     1      -0.1505590692E-04       5    6    1        -0.8806716287E-03      0.2472212017E-02

    ------------------------------------------------
       NWT REQUIRED            4 OUTER ITERATIONS 
       AND A TOTAL OF          7 INNER ITERATIONS.
    ------------------------------------------------

 NO OUTPUT CONTROL FOR STRESS PERIOD   34   TIME STEP    6
 
 SOLVING FOR HEAD 
                                                   Max.-Head-Change                         Max.-Flux-Residual
  Residual-Control   Outer-Iter.   Inner-Iter.     Column Row Layer    Maximum-Head-Change  Column Row Layer    Maximum-Flux-Residual          L2-NORM 
          0                 1           2             5    7     1       0.5584343618E-01       5    7    1         0.2967880545E+01      0.8389449483E+01
          0                 2           2             5    7     1      -0.5432007778E-02       5    7    1        -0.2967856566E+00      0.8389327786E+00
          0                 3           2             5    7     1       0.3698978242E-03       5    7    1         0.2077490955E-01      0.5872518035E-01
          0                 4           1             5    7     1      -0.1472066191E-04       5    7    1        -0.8498140705E-03      0.2402111310E-02

    ------------------------------------------------
       NWT REQUIRED            4 OUTER ITERATIONS 
       AND A TOTAL OF          7 INNER ITERATIONS.
    ------------------------------------------------

 NO OUTPUT CONTROL FOR STRESS PERIOD   34   TIME STEP    7
 
 SOLVING FOR HEAD 
                                                   Max.-Head-Change                         Max.-Flux-Residual
  Residual-Control   Outer-Iter.   Inner-Iter.     Column Row Layer    Maximum-Head-Change  Column Row Layer    Maximum-Flux-Residual          L2-NORM 
          0                 1           2             5    7     1       0.5459625268E-01       5    7    1         0.2901793309E+01      0.8156655689E+01
          0                 2           2             5    7     1      -0.5310696352E-02       5    7    1        -0.2901773060E+00      0.8156545874E+00
          0                 3           2             5    7     1       0.3616369119E-03       5    7    1         0.2031232127E-01      0.5709569124E-01
          0                 4           1             5    7     1      -0.1439195258E-04       5    7    1        -0.8308941974E-03      0.2335463117E-02

    ------------------------------------------------
       NWT REQUIRED            4 OUTER ITERATIONS 
       AND A TOTAL OF          7 INNER ITERATIONS.
    ------------------------------------------------

 NO OUTPUT CONTROL FOR STRESS PERIOD   34   TIME STEP    8
 
 SOLVING FOR HEAD 
                                                   Max.-Head-Change                         Max.-Flux-Residual
  Residual-Control   Outer-Iter.   Inner-Iter.     Column Row Layer    Maximum-Head-Change  Column Row Layer    Maximum-Flux-Residual          L2-NORM 
          0                 1           2             5    7     1       0.5337478619E-01       5    7    1         0.2837006249E+01      0.7935115436E+01
          0                 2           2             5    7     1      -0.5191885797E-02       5    7    1        -0.2836989257E+00      0.7935015742E+00
          0                 3           2             5    7     1       0.3535463065E-03       5    7    1         0.1985883136E-01      0.5554497083E-01
          0                 4           1             5    7     1      -0.1407002035E-04       5    7    1        -0.8123464629E-03      0.2272040101E-02

    ------------------------------------------------
       NWT REQUIRED            4 OUTER ITERATIONS 
       AND A TOTAL OF          7 INNER ITERATIONS.
    ------------------------------------------------

 NO OUTPUT CONTROL FOR STRESS PERIOD   34   TIME STEP    9
 
 SOLVING FOR HEAD 
                                                   Max.-Head-Change                         Max.-Flux-Residual
  Residual-Control   Outer-Iter.   Inner-Iter.     Column Row Layer    Maximum-Head-Change  Column Row Layer    Maximum-Flux-Residual          L2-NORM 
          0                 1           2             4    7     1       0.5253685078E-01       5    7    1         0.2773551039E+01      0.7724064772E+01
          0                 2           2             4    7     1      -0.5110397078E-02       5    7    1        -0.2773536892E+00      0.7723975371E+00
          0                 3           2             4    7     1       0.3479970138E-03       5    7    1         0.1941466192E-01      0.5406767720E-01
          0                 4           1             4    7     1      -0.1384922887E-04       5    7    1        -0.7941799224E-03      0.2211618309E-02

    ------------------------------------------------
       NWT REQUIRED            4 OUTER ITERATIONS 
       AND A TOTAL OF          7 INNER ITERATIONS.
    ------------------------------------------------

 NO OUTPUT CONTROL FOR STRESS PERIOD   34   TIME STEP   10
 
 SOLVING FOR HEAD 
                                                   Max.-Head-Change                         Max.-Flux-Residual
  Residual-Control   Outer-Iter.   Inner-Iter.     Column Row Layer    Maximum-Head-Change  Column Row Layer    Maximum-Flux-Residual          L2-NORM 
          0                 1           2             4    7     1       0.5208425467E-01       4    7    1         0.2729533126E+01      0.7522810635E+01
          0                 2           2             4    7     1      -0.5066375977E-02       4    7    1        -0.2729532511E+00      0.7522729968E+00
          0                 3           2             4    7     1       0.3449992994E-03       4    7    1         0.1910661832E-01      0.5265895079E-01
          0                 4           1             4    7     1      -0.1372994700E-04       4    7    1        -0.7815809809E-03      0.2154003169E-02

    ------------------------------------------------
       NWT REQUIRED            4 OUTER ITERATIONS 
       AND A TOTAL OF          7 INNER ITERATIONS.
    ------------------------------------------------

 NO OUTPUT CONTROL FOR STRESS PERIOD   34   TIME STEP   11
 
 SOLVING FOR HEAD 
                                                   Max.-Head-Change                         Max.-Flux-Residual
  Residual-Control   Outer-Iter.   Inner-Iter.     Column Row Layer    Maximum-Head-Change  Column Row Layer    Maximum-Flux-Residual          L2-NORM 
          0                 1           2             4    7     1       0.5160667780E-01       4    7    1         0.2706027593E+01      0.7330703080E+01
          0                 2           2             4    7     1      -0.5019924466E-02       4    7    1        -0.2706029421E+00      0.7330630298E+00
          0                 3           2             4    7     1       0.3418360878E-03       4    7    1         0.1894209433E-01      0.5131424568E-01
          0                 4           1             4    7     1      -0.1360407995E-04       4    7    1        -0.7748519436E-03      0.2099004080E-02

    ------------------------------------------------
       NWT REQUIRED            4 OUTER ITERATIONS 
       AND A TOTAL OF          7 INNER ITERATIONS.
    ------------------------------------------------

 NO OUTPUT CONTROL FOR STRESS PERIOD   34   TIME STEP   12
 
 SOLVING FOR HEAD 
                                                   Max.-Head-Change                         Max.-Flux-Residual
  Residual-Control   Outer-Iter.   Inner-Iter.     Column Row Layer    Maximum-Head-Change  Column Row Layer    Maximum-Flux-Residual          L2-NORM 
          0                 1           2             4    7     1       0.5110655040E-01       4    7    1         0.2681219492E+01      0.7147166769E+01
          0                 2           2             4    7     1      -0.4971278977E-02       4    7    1        -0.2681223480E+00      0.7147101103E+00
          0                 3           2             4    7     1       0.3385234782E-03       4    7    1         0.1876845063E-01      0.5002953405E-01
          0                 4           1             4    7     1      -0.1347226806E-04       4    7    1        -0.7677499095E-03      0.2046459301E-02

    ------------------------------------------------
       NWT REQUIRED            4 OUTER ITERATIONS 
       AND A TOTAL OF          7 INNER ITERATIONS.
    ------------------------------------------------

 NO OUTPUT CONTROL FOR STRESS PERIOD   34   TIME STEP   13
 
 SOLVING FOR HEAD 
                                                   Max.-Head-Change                         Max.-Flux-Residual
  Residual-Control   Outer-Iter.   Inner-Iter.     Column Row Layer    Maximum-Head-Change  Column Row Layer    Maximum-Flux-Residual          L2-NORM 
          0                 1           2             4    7     1       0.5058613873E-01       4    7    1         0.2655234703E+01      0.6971647455E+01
          0                 2           2             4    7     1      -0.4920659998E-02       4    7    1        -0.2655240596E+00      0.6971588204E+00
          0                 3           2             4    7     1       0.3350764855E-03       4    7    1         0.1858656856E-01      0.4880093693E-01
          0                 4           1             4    7     1      -0.1333510953E-04       4    7    1        -0.7603109448E-03      0.1996209981E-02

    ------------------------------------------------
       NWT REQUIRED            4 OUTER ITERATIONS 
       AND A TOTAL OF          7 INNER ITERATIONS.
    ------------------------------------------------

 NO OUTPUT CONTROL FOR STRESS PERIOD   34   TIME STEP   14
 
 SOLVING FOR HEAD 
                                                   Max.-Head-Change                         Max.-Flux-Residual
  Residual-Control   Outer-Iter.   Inner-Iter.     Column Row Layer    Maximum-Head-Change  Column Row Layer    Maximum-Flux-Residual          L2-NORM 
          0                 1           2             4    7     1       0.5004769959E-01       4    7    1         0.2628198189E+01      0.6803638768E+01
          0                 2           2             4    7     1      -0.4868287088E-02       4    7    1        -0.2628205755E+00      0.6803585285E+00
          0                 3           2             4    7     1       0.3315100594E-03       4    7    1         0.1839732299E-01      0.4762490974E-01
          0                 4           1             4    7     1      -0.1319319818E-04       4    7    1        -0.7525707981E-03      0.1948110796E-02

    ------------------------------------------------
       NWT REQUIRED            4 OUTER ITERATIONS 
       AND A TOTAL OF          7 INNER ITERATIONS.
    ------------------------------------------------

 NO OUTPUT CONTROL FOR STRESS PERIOD   34   TIME STEP   15
 
 SOLVING FOR HEAD 
                                                   Max.-Head-Change                         Max.-Flux-Residual
  Residual-Control   Outer-Iter.   Inner-Iter.     Column Row Layer    Maximum-Head-Change  Column Row Layer    Maximum-Flux-Residual          L2-NORM 
          0                 1           2             4    7     1       0.4949347311E-01       4    7    1         0.2600233832E+01      0.6642687097E+01
          0                 2           2             4    7     1      -0.4814378185E-02       4    7    1        -0.2600242862E+00      0.6642638817E+00
          0                 3           2             4    7     1       0.3278390415E-03       4    7    1         0.1820158128E-01      0.4649828495E-01
          0                 4           1             4    7     1      -0.1304712509E-04       4    7    1        -0.7445649605E-03      0.1902044972E-02

    ------------------------------------------------
       NWT REQUIRED            4 OUTER ITERATIONS 
       AND A TOTAL OF          7 INNER ITERATIONS.
    ------------------------------------------------

 NO OUTPUT CONTROL FOR STRESS PERIOD   34   TIME STEP   16
 
 SOLVING FOR HEAD 
                                                   Max.-Head-Change                         Max.-Flux-Residual
  Residual-Control   Outer-Iter.   Inner-Iter.     Column Row Layer    Maximum-Head-Change  Column Row Layer    Maximum-Flux-Residual          L2-NORM 
          0                 1           2             4    7     1       0.4892516078E-01       4    7    1         0.2571436458E+01      0.6488363938E+01
          0                 2           2             4    7     1      -0.4759098824E-02       4    7    1        -0.2571446759E+00      0.6488320360E+00
          0                 3           2             4    7     1       0.3240747027E-03       4    7    1         0.1800000725E-01      0.4541804146E-01
          0                 4           1             4    7     1      -0.1289733844E-04       4    7    1        -0.7363205766E-03      0.1857847271E-02

    ------------------------------------------------
       NWT REQUIRED            4 OUTER ITERATIONS 
       AND A TOTAL OF          7 INNER ITERATIONS.
    ------------------------------------------------

 NO OUTPUT CONTROL FOR STRESS PERIOD   34   TIME STEP   17
 
 SOLVING FOR HEAD 
                                                   Max.-Head-Change                         Max.-Flux-Residual
  Residual-Control   Outer-Iter.   Inner-Iter.     Column Row Layer    Maximum-Head-Change  Column Row Layer    Maximum-Flux-Residual          L2-NORM 
          0                 1           2             4    7     1       0.4834473448E-01       4    7    1         0.2541915725E+01      0.6340258661E+01
          0                 2           2             4    7     1      -0.4702640848E-02       4    7    1        -0.2541927128E+00      0.6340219285E+00
          0                 3           2             4    7     1       0.3202301076E-03       4    7    1         0.1779336871E-01      0.4438132829E-01
          0                 4           1             4    7     1      -0.1274435873E-04       4    7    1        -0.7278690548E-03      0.1815445151E-02

    ------------------------------------------------
       NWT REQUIRED            4 OUTER ITERATIONS 
       AND A TOTAL OF          7 INNER ITERATIONS.
    ------------------------------------------------

 NO OUTPUT CONTROL FOR STRESS PERIOD   34   TIME STEP   18
 
 SOLVING FOR HEAD 
                                                   Max.-Head-Change                         Max.-Flux-Residual
  Residual-Control   Outer-Iter.   Inner-Iter.     Column Row Layer    Maximum-Head-Change  Column Row Layer    Maximum-Flux-Residual          L2-NORM 
          0                 1           2             4    7     1       0.4775377203E-01       4    7    1         0.2511759539E+01      0.6198014378E+01
          0                 2           2             4    7     1      -0.4645157757E-02       4    7    1        -0.2511771886E+00      0.6197953405E+00
          0                 3           2             4    7     1       0.3163157080E-03       4    7    1         0.1758228103E-01      0.4338546246E-01
          0                 4           1             4    7     1      -0.1258860087E-04       4    7    1        -0.7192355558E-03      0.1774712505E-02

    ------------------------------------------------
       NWT REQUIRED            4 OUTER ITERATIONS 
       AND A TOTAL OF          7 INNER ITERATIONS.
    ------------------------------------------------

 NO OUTPUT CONTROL FOR STRESS PERIOD   34   TIME STEP   19
 
 SOLVING FOR HEAD 
                                                   Max.-Head-Change                         Max.-Flux-Residual
  Residual-Control   Outer-Iter.   Inner-Iter.     Column Row Layer    Maximum-Head-Change  Column Row Layer    Maximum-Flux-Residual          L2-NORM 
          0                 1           2             4    7     1       0.4715387741E-01       4    7    1         0.2481056933E+01      0.6061301768E+01
          0                 2           2             4    7     1      -0.4586805598E-02       4    7    1        -0.2481070085E+00      0.6061269664E+00
          0                 3           2             4    7     1       0.3123421304E-03       4    7    1         0.1736736757E-01      0.4242867404E-01
          0                 4           1             4    7     1      -0.1243048900E-04       4    7    1        -0.7104455915E-03      0.1735579511E-02

    ------------------------------------------------
       NWT REQUIRED            4 OUTER ITERATIONS 
       AND A TOTAL OF          7 INNER ITERATIONS.
    ------------------------------------------------

 NO OUTPUT CONTROL FOR STRESS PERIOD   34   TIME STEP   20
 
 SOLVING FOR HEAD 
                                                   Max.-Head-Change                         Max.-Flux-Residual
  Residual-Control   Outer-Iter.   Inner-Iter.     Column Row Layer    Maximum-Head-Change  Column Row Layer    Maximum-Flux-Residual          L2-NORM 
          0                 1           2             4    7     1       0.4654653383E-01       4    7    1         0.2449891072E+01      0.5929803027E+01
          0                 2           2             4    7     1      -0.4527728669E-02       4    7    1        -0.2449904901E+00      0.5929773806E+00
          0                 3           2             4    7     1       0.3083192006E-03       4    7    1         0.1714921056E-01      0.4150819621E-01
          0                 4           1             4    7     1      -0.1227041247E-04       4    7    1        -0.7015229585E-03      0.1697930959E-02

    ------------------------------------------------
       NWT REQUIRED            4 OUTER ITERATIONS 
       AND A TOTAL OF          7 INNER ITERATIONS.
    ------------------------------------------------

 NO OUTPUT CONTROL FOR STRESS PERIOD   34   TIME STEP   21
 
 SOLVING FOR HEAD 
                                                   Max.-Head-Change                         Max.-Flux-Residual
  Residual-Control   Outer-Iter.   Inner-Iter.     Column Row Layer    Maximum-Head-Change  Column Row Layer    Maximum-Flux-Residual          L2-NORM 
          0                 1           2             4    7     1       0.4593325332E-01       4    7    1         0.2418346089E+01      0.5803223167E+01
          0                 2           2             4    7     1      -0.4468074067E-02       4    7    1        -0.2418360483E+00      0.5803196874E+00
          0                 3           2             4    7     1       0.3042569348E-03       4    7    1         0.1692839900E-01      0.4062215970E-01
          0                 4           1             4    7     1      -0.1210877159E-04       4    7    1        -0.6924917554E-03      0.1661689320E-02

    ------------------------------------------------
       NWT REQUIRED            4 OUTER ITERATIONS 
       AND A TOTAL OF          7 INNER ITERATIONS.
    ------------------------------------------------

 NO OUTPUT CONTROL FOR STRESS PERIOD   34   TIME STEP   22
 
 SOLVING FOR HEAD 
                                                   Max.-Head-Change                         Max.-Flux-Residual
  Residual-Control   Outer-Iter.   Inner-Iter.     Column Row Layer    Maximum-Head-Change  Column Row Layer    Maximum-Flux-Residual          L2-NORM 
          0                 1           2             4    7     1       0.4531504470E-01       4    7    1         0.2386478808E+01      0.5681281748E+01
          0                 2           2             4    7     1      -0.4407939942E-02       4    7    1        -0.2386493664E+00      0.5681257952E+00
          0                 3           2             4    7     1       0.3001620169E-03       4    7    1         0.1670533074E-01      0.3976858320E-01
          0                 4           1             4    7     1      -0.1194583070E-04       4    7    1        -0.6833682583E-03      0.1626785443E-02

    ------------------------------------------------
       NWT REQUIRED            4 OUTER ITERATIONS 
       AND A TOTAL OF          7 INNER ITERATIONS.
    ------------------------------------------------

 NO OUTPUT CONTROL FOR STRESS PERIOD   34   TIME STEP   23
 
 SOLVING FOR HEAD 
                                                   Max.-Head-Change                         Max.-Flux-Residual
  Residual-Control   Outer-Iter.   Inner-Iter.     Column Row Layer    Maximum-Head-Change  Column Row Layer    Maximum-Flux-Residual          L2-NORM 
          0                 1           2             4    7     1       0.4469322491E-01       4    7    1         0.2354362870E+01      0.5563729451E+01
          0                 2           2             4    7     1      -0.4347454409E-02       4    7    1        -0.2354378096E+00      0.5563707840E+00
          0                 3           2             4    7     1       0.2960431707E-03       4    7    1         0.1648052131E-01      0.3894572649E-01
          0                 4           1             4    7     1      -0.1178193804E-04       4    7    1        -0.6741735401E-03      0.1593172790E-02

    ------------------------------------------------
       NWT REQUIRED            4 OUTER ITERATIONS 
       AND A TOTAL OF          7 INNER ITERATIONS.
    ------------------------------------------------

 NO OUTPUT CONTROL FOR STRESS PERIOD   34   TIME STEP   24
 
 SOLVING FOR HEAD 
                                                   Max.-Head-Change                         Max.-Flux-Residual
  Residual-Control   Outer-Iter.   Inner-Iter.     Column Row Layer    Maximum-Head-Change  Column Row Layer    Maximum-Flux-Residual          L2-NORM 
          0                 1           2             4    7     1       0.4406876020E-01       4    7    1         0.2322052449E+01      0.5450341066E+01
          0                 2           2             4    7     1      -0.4286711474E-02       4    7    1        -0.2322067962E+00      0.5450321470E+00
          0                 3           2             4    7     1       0.2919067976E-03       4    7    1         0.1625435001E-01      0.3815202679E-01
          0                 4           1             4    7     1      -0.1161734817E-04       4    7    1        -0.6649231184E-03      0.1560728681E-02

    ------------------------------------------------
       NWT REQUIRED            4 OUTER ITERATIONS 
       AND A TOTAL OF          7 INNER ITERATIONS.
    ------------------------------------------------

 NO OUTPUT CONTROL FOR STRESS PERIOD   34   TIME STEP   25
 
 SOLVING FOR HEAD 
                                                   Max.-Head-Change                         Max.-Flux-Residual
  Residual-Control   Outer-Iter.   Inner-Iter.     Column Row Layer    Maximum-Head-Change  Column Row Layer    Maximum-Flux-Residual          L2-NORM 
          0                 1           2             4    7     1       0.4344293184E-01       4    7    1         0.2289619344E+01      0.5340896315E+01
          0                 2           2             4    7     1      -0.4225835783E-02       4    7    1        -0.2289635072E+00      0.5340877804E+00
          0                 3           2             4    7     1       0.2877613850E-03       4    7    1         0.1602731945E-01      0.3738592458E-01
          0                 4           1             4    7     1      -0.1145239829E-04       4    7    1        -0.6556375624E-03      0.1529331977E-02

    ------------------------------------------------
       NWT REQUIRED            4 OUTER ITERATIONS 
       AND A TOTAL OF          7 INNER ITERATIONS.
    ------------------------------------------------

 NO OUTPUT CONTROL FOR STRESS PERIOD   34   TIME STEP   26
 
 SOLVING FOR HEAD 
                                                   Max.-Head-Change                         Max.-Flux-Residual
  Residual-Control   Outer-Iter.   Inner-Iter.     Column Row Layer    Maximum-Head-Change  Column Row Layer    Maximum-Flux-Residual          L2-NORM 
          0                 1           2             4    7     1       0.4281639692E-01       4    7    1         0.2257100935E+01      0.5235178363E+01
          0                 2           2             4    7     1      -0.4164891265E-02       4    7    1        -0.2257116813E+00      0.5235161778E+00
          0                 3           2             4    7     1       0.2836112871E-03       4    7    1         0.1579969142E-01      0.3664591126E-01
          0                 4           1             4    7     1      -0.1128726179E-04       4    7    1        -0.6463275577E-03      0.1499061057E-02

    ------------------------------------------------
       NWT REQUIRED            4 OUTER ITERATIONS 
       AND A TOTAL OF          7 INNER ITERATIONS.
    ------------------------------------------------

 NO OUTPUT CONTROL FOR STRESS PERIOD   34   TIME STEP   27
 
 SOLVING FOR HEAD 
                                                   Max.-Head-Change                         Max.-Flux-Residual
  Residual-Control   Outer-Iter.   Inner-Iter.     Column Row Layer    Maximum-Head-Change  Column Row Layer    Maximum-Flux-Residual          L2-NORM 
          0                 1           2             4    7     1       0.4219015343E-01       4    7    1         0.2224552993E+01      0.5133019477E+01
          0                 2           2             4    7     1      -0.4103975007E-02       4    7    1        -0.2224568961E+00      0.5133004099E+00
          0                 3           2             4    7     1       0.2794631142E-03       4    7    1         0.1557185627E-01      0.3593080173E-01
          0                 4           1             4    7     1      -0.1112220220E-04       4    7    1        -0.6370090828E-03      0.1469811635E-02

    ------------------------------------------------
       NWT REQUIRED            4 OUTER ITERATIONS 
       AND A TOTAL OF          7 INNER ITERATIONS.
    ------------------------------------------------

 NO OUTPUT CONTROL FOR STRESS PERIOD   34   TIME STEP   28
 
 SOLVING FOR HEAD 
                                                   Max.-Head-Change                         Max.-Flux-Residual
  Residual-Control   Outer-Iter.   Inner-Iter.     Column Row Layer    Maximum-Head-Change  Column Row Layer    Maximum-Flux-Residual          L2-NORM 
          0                 1           2             4    7     1       0.4156485129E-01       4    7    1         0.2192012792E+01      0.5034220697E+01
          0                 2           2             4    7     1      -0.4043150238E-02       4    7    1        -0.2192028798E+00      0.5034206287E+00
          0                 3           2             4    7     1       0.2753211718E-03       4    7    1         0.1534407498E-01      0.3523921376E-01
          0                 4           1             4    7     1      -0.1095739025E-04       4    7    1        -0.6276928102E-03      0.1441528710E-02

    ------------------------------------------------
       NWT REQUIRED            4 OUTER ITERATIONS 
       AND A TOTAL OF          7 INNER ITERATIONS.
    ------------------------------------------------

 NO OUTPUT CONTROL FOR STRESS PERIOD   34   TIME STEP   29
 
 SOLVING FOR HEAD 
                                                   Max.-Head-Change                         Max.-Flux-Residual
  Residual-Control   Outer-Iter.   Inner-Iter.     Column Row Layer    Maximum-Head-Change  Column Row Layer    Maximum-Flux-Residual          L2-NORM 
          0                 1           2             4    7     1       0.4094134906E-01       4    7    1         0.2159528621E+01      0.4938630969E+01
          0                 2           2             4    7     1      -0.3982500483E-02       4    7    1        -0.2159544619E+00      0.4938617419E+00
          0                 3           2             4    7     1       0.2711911485E-03       4    7    1         0.1511668564E-01      0.3457009314E-01
          0                 4           1             4    7     1      -0.1079305285E-04       4    7    1        -0.6183925846E-03      0.1414160271E-02

    ------------------------------------------------
       NWT REQUIRED            4 OUTER ITERATIONS 
       AND A TOTAL OF          7 INNER ITERATIONS.
    ------------------------------------------------

 NO OUTPUT CONTROL FOR STRESS PERIOD   34   TIME STEP   30



 STREAM LISTING     PERIOD     34   STEP       30

 LAYER ROW COL. STREAM  RCH.  FLOW INTO     FLOW TO   FLOW OUT OF   OVRLND.     DIRECT     STREAM       STREAM     STREAM     STREAM   STREAMBED  STREAMBED
                SEG.NO.  NO.  STRM. RCH.    AQUIFER    STRM. RCH.    RUNOFF     PRECIP       ET          HEAD       DEPTH      WIDTH   CONDCTNC.   GRADIENT

   1    1    1     1     1    1.9000E+01  2.1427E-01   1.8786E+01  0.000E+00  0.000E+00  0.000E+00  1.09413E+03  1.082E+00  1.166E+01  5.249E-02  1.361E+00
   1    2    2     1     2    1.8786E+01  3.3054E-01   1.8455E+01  0.000E+00  0.000E+00  0.000E+00  1.08914E+03  1.077E+00  1.158E+01  8.107E-02  1.359E+00
   1    3    3     1     3    1.8455E+01  2.8064E-01   1.8175E+01  0.000E+00  0.000E+00  0.000E+00  1.08349E+03  1.072E+00  1.149E+01  6.892E-02  1.357E+00
   1    3    4     1     4    1.8175E+01  2.5740E-01   1.7917E+01  0.000E+00  0.000E+00  0.000E+00  1.07848E+03  1.068E+00  1.140E+01  6.328E-02  1.356E+00
   1    4    5     2     1    1.5917E+01  3.0542E-01   1.5612E+01  0.000E+00  0.000E+00  0.000E+00  1.07285E+03  9.157E-01  1.200E+01  7.800E-02  1.305E+00
   1    5    6     2     2    1.5612E+01  2.3438E-01   1.5377E+01  0.000E+00  0.000E+00  0.000E+00  1.06742E+03  9.063E-01  1.200E+01  6.000E-02  1.302E+00
   1    6    6     2     3    1.5377E+01  2.3388E-01   1.5143E+01  0.000E+00  0.000E+00  0.000E+00  1.06269E+03  8.980E-01  1.200E+01  6.000E-02  1.299E+00
   1    7    6     2     4    1.5143E+01  2.3338E-01   1.4910E+01  0.000E+00  0.000E+00  0.000E+00  1.05797E+03  8.897E-01  1.200E+01  6.000E-02  1.297E+00
   1    8    6     2     5    1.4910E+01  2.3289E-01   1.4677E+01  0.000E+00  0.000E+00  0.000E+00  1.05324E+03  8.814E-01  1.200E+01  6.000E-02  1.294E+00
   1    3    5     3     1    2.0000E+00  2.8252E-01   1.7175E+00  0.000E+00  0.000E+00  0.000E+00  1.07555E+03  1.909E+00  9.636E+00  7.227E-02  1.955E+00
   1    3    6     3     2    1.7175E+00  2.4905E-01   1.4684E+00  0.000E+00  0.000E+00  0.000E+00  1.07264E+03  1.727E+00  8.909E+00  6.682E-02  1.864E+00
   1    3    7     3     3    1.4684E+00  1.9718E-01   1.2712E+00  0.000E+00  0.000E+00  0.000E+00  1.06987E+03  1.555E+00  8.218E+00  5.547E-02  1.777E+00
   1    4    8     3     4    1.2712E+00  2.2567E-01   1.0456E+00  0.000E+00  0.000E+00  0.000E+00  1.06682E+03  1.364E+00  7.455E+00  6.709E-02  1.682E+00
   1    5    8     3     5    1.0456E+00  1.5790E-01   8.8768E-01  0.000E+00  0.000E+00  0.000E+00  1.06362E+03  1.164E+00  6.655E+00  4.991E-02  1.582E+00
   1    6    8     3     6    8.8768E-01  5.5980E-02   8.3170E-01  0.000E+00  0.000E+00  0.000E+00  1.06158E+03  1.036E+00  6.145E+00  1.844E-02  1.518E+00
   1    5   10     4     1    1.0000E+01  9.0919E-02   9.9091E+00  0.000E+00  0.000E+00  0.000E+00  1.07836E+03  6.368E-01  1.000E+01  2.500E-02  1.212E+00
   1    5    9     4     2    9.9091E+00  1.8158E-01   9.7275E+00  0.000E+00  0.000E+00  0.000E+00  1.07154E+03  6.315E-01  1.000E+01  5.000E-02  1.211E+00
   1    6    8     4     3    9.7275E+00  1.2689E-01   9.6006E+00  0.000E+00  0.000E+00  0.000E+00  1.06381E+03  6.256E-01  1.000E+01  3.500E-02  1.209E+00
   1    6    8     5     1    1.0432E+01  2.2686E-01   1.0205E+01  0.000E+00  0.000E+00  0.000E+00  1.05868E+03  6.790E-01  1.542E+01  6.166E-02  1.226E+00
   1    7    7     5     2    1.0205E+01  2.7894E-01   9.9265E+00  0.000E+00  0.000E+00  0.000E+00  1.05417E+03  6.732E-01  1.519E+01  7.594E-02  1.224E+00
   1    8    7     5     3    9.9265E+00  1.9221E-01   9.7343E+00  0.000E+00  0.000E+00  0.000E+00  1.04992E+03  6.676E-01  1.497E+01  5.241E-02  1.223E+00
   1    8    6     5     4    9.7343E+00  1.3577E-01   9.5985E+00  0.000E+00  0.000E+00  0.000E+00  1.04691E+03  6.637E-01  1.482E+01  3.706E-02  1.221E+00
   1    9    6     6     1    2.4276E+01  2.5176E-01   2.4024E+01  0.000E+00  0.000E+00  0.000E+00  1.04392E+03  1.196E+00  1.200E+01  6.000E-02  1.399E+00
   1   10    7     6     2    2.4024E+01  2.5131E-01   2.3773E+01  0.000E+00  0.000E+00  0.000E+00  1.03937E+03  1.188E+00  1.200E+01  6.000E-02  1.396E+00
   1   11    7     6     3    2.3773E+01  2.5086E-01   2.3522E+01  0.000E+00  0.000E+00  0.000E+00  1.03482E+03  1.181E+00  1.200E+01  6.000E-02  1.394E+00
   1   12    7     6     4    2.3522E+01  2.5041E-01   2.3271E+01  0.000E+00  0.000E+00  0.000E+00  1.03026E+03  1.173E+00  1.200E+01  6.000E-02  1.391E+00
   1   13    7     6     5    2.3271E+01  7.0564E-03   2.3264E+01  0.000E+00  0.000E+00  0.000E+00  1.02708E+03  1.170E+00  1.200E+01  2.400E-02  9.801E-02
   1   14    9     7     1    1.5000E+02  1.3532E+00   1.4865E+02  0.000E+00  0.000E+00  0.000E+00  1.03987E+03  2.288E+00  5.529E+01  5.593E-01  8.065E-01
   1   13    8     7     2    1.4865E+02  1.9173E+00   1.4673E+02  0.000E+00  0.000E+00  0.000E+00  1.03478E+03  2.279E+00  5.526E+01  6.148E-01  1.040E+00
   1   13    7     7     3    1.4673E+02  1.6217E+00   1.4511E+02  0.000E+00  0.000E+00  0.000E+00  1.02969E+03  2.270E+00  5.521E+01  5.584E-01  9.681E-01
   1   13    6     8     1    1.6837E+02  1.0611E+00   1.6731E+02  0.000E+00  0.000E+00  0.000E+00  1.02481E+03  2.938E+00  4.260E+01  4.341E-01  8.147E-01
   1   13    5     8     2    1.6731E+02  3.0583E-01   1.6701E+02  0.000E+00  0.000E+00  0.000E+00  1.01856E+03  2.934E+00  4.254E+01  4.335E-01  2.352E-01
   1   13    4     8     3    1.6701E+02 -1.9987E+00   1.6900E+02  0.000E+00  0.000E+00  0.000E+00  1.01231E+03  2.939E+00  4.262E+01  4.343E+00 -1.534E-01
   1   13    3     8     4    1.6900E+02 -3.4370E+00   1.7244E+02  0.000E+00  0.000E+00  0.000E+00  1.00608E+03  2.957E+00  4.288E+01  4.369E+00 -2.622E-01
   1   13    2     8     5    1.7244E+02 -2.5248E+00   1.7497E+02  0.000E+00  0.000E+00  0.000E+00  9.99851E+02  2.976E+00  4.315E+01  4.398E+00 -1.914E-01
   1   13    1     8     6    1.7497E+02 -1.9691E+00   1.7693E+02  0.000E+00  0.000E+00  0.000E+00  9.94866E+02  2.991E+00  4.336E+01  2.651E+00 -2.476E-01





UNSATURATED ZONE PACKAGE VOLUMETRIC BUDGET FOR  TIME STEP    30 STRESS PERIOD   34
  ------------------------------------------------------------------------------



     CUMULATIVE VOLUMES      L**3       RATES FOR THIS TIME STEP      L**3/T
     ------------------                 ------------------------

           IN:                                      IN:
           ---                                      ---
        INFILTRATION =  1576357680.6875          INFILTRATION =          15.3472

          OUT:                                     OUT:
          ----                                     ----
              UZF ET =  1486005881.0193                UZF ET =          15.3575
        UZF RECHARGE =      884424.5976          UZF RECHARGE =       0.0000E+00

            IN - OUT =    89467375.0706              IN - OUT =      -1.0345E-02

          STORAGE:                                 STORAGE:
          --------                                 --------
      STORAGE CHANGE =    89468304.1567        STORAGE CHANGE =      -1.0345E-02

 PERCENT DISCREPANCY IS DIFFERENCE BETWEEN IN-OUT MINUS CHANGE IN STORAGE
 DIVIDED BY THE AVERAGE OF IN AND OUT TIMES 100

 PERCENT DISCREPANCY =          -0.00     PERCENT DISCREPANCY =           0.00






1
  VOLUMETRIC BUDGET FOR AGRICULTURAL FIELDS AT TIME STEP   30, STRESS PERIOD  34
  ------------------------------------------------------------------------------

     CUMULATIVE VOLUMES      L**3       RATES FOR THIS TIME STEP      L**3/T
     ------------------                 ------------------------

           IN:                                      IN:
           ---                                      ---
               AG WELLS  =  1193757312.0000                 AG WELLS  =          10.9397
      DIVERSION SEGMENTS =           0.0000        DIVERSION SEGMENTS =           0.0000
           GW IRRIGATION =           0.0000             GW IRRIGATION =           0.0000
           SW IRRIGATION =           0.0000             SW IRRIGATION =           0.0000
        SYSTEM LOSSES GW =           0.0000          SYSTEM LOSSES GW =           0.0000
        SYSTEM LOSSES SW =           0.0000          SYSTEM LOSSES SW =           0.0000

                TOTAL IN =  1193757312.0000                  TOTAL IN =          10.9397

          OUT:                                     OUT:
          ----                                     ----
               AG WELLS  =           0.0000                 AG WELLS  =           0.0000
      DIVERSION SEGMENTS =           0.0000        DIVERSION SEGMENTS =           0.0000
           GW IRRIGATION =  1193757312.0000             GW IRRIGATION =          10.9397
           SW IRRIGATION =           0.0000             SW IRRIGATION =           0.0000
        SYSTEM LOSSES GW =           0.0000          SYSTEM LOSSES GW =           0.0000
        SYSTEM LOSSES SW =           0.0000          SYSTEM LOSSES SW =           0.0000

               TOTAL OUT =  1193757312.0000                 TOTAL OUT =          10.9397

                IN - OUT =           0.0000                  IN - OUT =           0.0000

     PERCENT DISCREPANCY =           0.00         PERCENT DISCREPANCY =           0.00



1
  VOLUMETRIC BUDGET FOR ENTIRE MODEL AT END OF TIME STEP   30, STRESS PERIOD  34
  ------------------------------------------------------------------------------

     CUMULATIVE VOLUMES      L**3       RATES FOR THIS TIME STEP      L**3/T
     ------------------                 ------------------------

           IN:                                      IN:
           ---                                      ---
             STORAGE     =  1546070784.0000               STORAGE     =          18.7258
       CONSTANT HEAD     =           0.0000         CONSTANT HEAD     =           0.0000
     HEAD DEP BOUNDS     =    24821708.0000       HEAD DEP BOUNDS     =           0.2869
      STREAM LEAKAGE     =  1065108480.0000        STREAM LEAKAGE     =          11.9947
        UZF RECHARGE     =      884424.5000          UZF RECHARGE     =           0.0000
               GW ET     =           0.0000                 GW ET     =           0.0000
     SURFACE LEAKAGE     =           0.0000       SURFACE LEAKAGE     =           0.0000
           AG WELLS      =           0.0000             AG WELLS      =           0.0000

                TOTAL IN =  2636885504.0000                  TOTAL IN =          31.0074

          OUT:                                     OUT:
          ----                                     ----
             STORAGE     =   504746752.0000               STORAGE     =           9.8491
       CONSTANT HEAD     =           0.0000         CONSTANT HEAD     =           0.0000
     HEAD DEP BOUNDS     =    25433008.0000       HEAD DEP BOUNDS     =           0.2891
      STREAM LEAKAGE     =   895605440.0000        STREAM LEAKAGE     =           9.9296
        UZF RECHARGE     =           0.0000          UZF RECHARGE     =           0.0000
               GW ET     =    17343536.0000                 GW ET     =           0.0000
     SURFACE LEAKAGE     =           0.0000       SURFACE LEAKAGE     =           0.0000
           AG WELLS      =  1193757312.0000             AG WELLS      =          10.9397

               TOTAL OUT =  2636886016.0000                 TOTAL OUT =          31.0074

                IN - OUT =        -512.0000                  IN - OUT =      -2.6703E-05

     PERCENT DISCREPANCY =          -0.00         PERCENT DISCREPANCY =          -0.00






         TIME SUMMARY AT END OF TIME STEP   30 IN STRESS PERIOD   34
                    SECONDS     MINUTES      HOURS       DAYS        YEARS
                    -----------------------------------------------------------
   TIME STEP LENGTH  87667.      1461.1      24.352      1.0147     2.77799E-03
 STRESS PERIOD TIME 2.63000E+06  43833.      730.56      30.440     8.33397E-02
         TOTAL TIME 8.68762E+07 1.44794E+06  24132.      1005.5      2.7529    
1
1
                            STRESS PERIOD NO.   35, LENGTH =   2630000.    
                            -----------------------------------------------

                              NUMBER OF TIME STEPS =    30

                               MULTIPLIER FOR DELT =     1.000

                            INITIAL TIME STEP SIZE =   87666.66    

 REUSING NON-PARAMETER GHB CELLS FROM LAST STRESS PERIOD

      2 GHB CELLS

 REUSING STREAM SEGMENT DATA FROM LAST STRESS PERIOD



            AREAL INFILTRATION RATE
 READING ON UNIT   19 WITH FORMAT: (10F4.0)            

            1           2           3           4           5           6           7           8           9          10
 ........................................................................................................................
   1   1.2000E-09   0.000       0.000       0.000       0.000       0.000       0.000       0.000       0.000       0.000    
   2   2.1000E-09  2.0000E-09  8.0000E-10  8.5000E-09   0.000       0.000       0.000       0.000       0.000       0.000    
   3   5.0000E-10  1.1000E-09  8.8000E-09  5.5000E-09   0.000       0.000       0.000       0.000       0.000       0.000    
   4   8.5000E-09  1.1000E-09  1.1000E-09  1.1000E-09  2.0000E-09   0.000       0.000       0.000       0.000       0.000    
   5   8.5000E-09  1.1000E-09  1.1000E-09  1.1000E-09  1.1000E-09   0.000       0.000       0.000       0.000       0.000    
   6   8.5000E-09  5.2000E-09  2.1000E-09  1.1000E-09  1.5000E-09   0.000       0.000       0.000       0.000       0.000    
   7   8.5000E-09  5.2000E-09  2.1000E-09  1.2000E-09  2.0000E-09   0.000       0.000       0.000       0.000       0.000    
   8   5.0000E-10  5.2000E-09  2.1000E-09  1.2000E-09  5.0000E-09   0.000       0.000       0.000       0.000       0.000    
   9   5.0000E-10  5.2000E-09  2.1000E-09  1.2000E-09  5.0000E-09   0.000       0.000       0.000       0.000       0.000    
  10   5.0000E-10  5.2000E-09  2.1000E-09  1.2000E-09  5.8000E-09   0.000       0.000       0.000       0.000       0.000    
  11   1.0000E-10  1.1000E-09  1.1000E-09  1.2000E-09  5.0000E-09   0.000       0.000       0.000       0.000       0.000    
  12   1.1000E-09  1.1000E-09  1.1000E-09  1.1000E-09  2.0000E-09   0.000       0.000       0.000       0.000       0.000    
  13   1.1000E-09  2.2000E-09  2.2000E-09  2.1000E-09  1.0000E-09   0.000       0.000       0.000       0.000       0.000    
  14   2.0000E-10  5.5000E-09  5.5000E-09  5.2000E-09  1.0000E-09   0.000       0.000       0.000       0.000       0.000    
  15    0.000      8.8000E-09  8.8000E-09   0.000       0.000       0.000       0.000       0.000       0.000       0.000    

                  ET RATE =  5.000000E-09

 USING ET EXTINCTION DEPTH FROM PREVIOUS STRESS PERIOD. CURRENT PERIOD IS:      35

 USING EXTINCTION WATER CONTENT FROM PREVIOUS STRESS PERIOD. CURRENT PERIOD IS:      35

 USING AIR ENTRY PRESSURE FROM PREVIOUS STRESS PERIOD. CURRENT PERIOD IS:      35

 USING ROOT PRESSURE HEAD FROM PREVIOUS STRESS PERIOD. CURRENT PERIOD IS:      35

 USING ROOT ACTIVITY FROM PREVIOUS STRESS PERIOD. CURRENT PERIOD IS:      35

 PROCESSING AG STRESS PERIOD DATA

 READING AG STRESS PERIOD DATA

 READING IRRIGATION WELL

 END PROCESSING AG STRESS PERIOD DATA OPTIONS
 
 SOLVING FOR HEAD 
                                                   Max.-Head-Change                         Max.-Flux-Residual
  Residual-Control   Outer-Iter.   Inner-Iter.     Column Row Layer    Maximum-Head-Change  Column Row Layer    Maximum-Flux-Residual          L2-NORM 
          0                 1           2             4    7     1       0.7562498405E-01       4    7    1         0.3970332244E+01      0.8899367622E+01
          0                 2           2             4    7     1      -0.7356311817E-02       4    7    1        -0.3970375240E+00      0.8899366214E+00
          0                 3           2             4    7     1       0.5009369464E-03       4    7    1         0.2779259799E-01      0.6229559372E-01
          0                 4           1             4    7     1      -0.1993275248E-04       4    7    1        -0.1136719027E-02      0.2547916287E-02

    ------------------------------------------------
       NWT REQUIRED            4 OUTER ITERATIONS 
       AND A TOTAL OF          7 INNER ITERATIONS.
    ------------------------------------------------

 NO OUTPUT CONTROL FOR STRESS PERIOD   35   TIME STEP    1
 
 SOLVING FOR HEAD 
                                                   Max.-Head-Change                         Max.-Flux-Residual
  Residual-Control   Outer-Iter.   Inner-Iter.     Column Row Layer    Maximum-Head-Change  Column Row Layer    Maximum-Flux-Residual          L2-NORM 
          0                 1           2             4    7     1       0.7482212454E-01       4    7    1         0.3929249597E+01      0.8725673821E+01
          0                 2           2             4    7     1      -0.7278217487E-02       4    7    1        -0.3929293927E+00      0.8725675955E+00
          0                 3           2             4    7     1       0.4956189923E-03       4    7    1         0.2750502741E-01      0.6107974306E-01
          0                 4           1             4    7     1      -0.1972114611E-04       4    7    1        -0.1124957384E-02      0.2498168138E-02

    ------------------------------------------------
       NWT REQUIRED            4 OUTER ITERATIONS 
       AND A TOTAL OF          7 INNER ITERATIONS.
    ------------------------------------------------

 NO OUTPUT CONTROL FOR STRESS PERIOD   35   TIME STEP    2
 
 SOLVING FOR HEAD 
                                                   Max.-Head-Change                         Max.-Flux-Residual
  Residual-Control   Outer-Iter.   Inner-Iter.     Column Row Layer    Maximum-Head-Change  Column Row Layer    Maximum-Flux-Residual          L2-NORM 
          0                 1           2             4    7     1       0.7400908916E-01       4    7    1         0.3887543485E+01      0.8558512633E+01
          0                 2           2             4    7     1      -0.7199132967E-02       4    7    1        -0.3887588913E+00      0.8558517917E+00
          0                 3           2             4    7     1       0.4902336139E-03       4    7    1         0.2721309116E-01      0.5990963142E-01
          0                 4           1             4    7     1      -0.1950685738E-04       4    7    1        -0.1113017189E-02      0.2450306678E-02

    ------------------------------------------------
       NWT REQUIRED            4 OUTER ITERATIONS 
       AND A TOTAL OF          7 INNER ITERATIONS.
    ------------------------------------------------

 NO OUTPUT CONTROL FOR STRESS PERIOD   35   TIME STEP    3
 
 SOLVING FOR HEAD 
                                                   Max.-Head-Change                         Max.-Flux-Residual
  Residual-Control   Outer-Iter.   Inner-Iter.     Column Row Layer    Maximum-Head-Change  Column Row Layer    Maximum-Flux-Residual          L2-NORM 
          0                 1           2             4    7     1       0.7318733917E-01       4    7    1         0.3845295260E+01      0.8397491895E+01
          0                 2           2             4    7     1      -0.7119200428E-02       4    7    1        -0.3845341567E+00      0.8397500098E+00
          0                 3           2             4    7     1       0.4847904911E-03       4    7    1         0.2691735877E-01      0.5878250402E-01
          0                 4           1             4    7     1      -0.1929027024E-04       4    7    1        -0.1100921707E-02      0.2404205598E-02

    ------------------------------------------------
       NWT REQUIRED            4 OUTER ITERATIONS 
       AND A TOTAL OF          7 INNER ITERATIONS.
    ------------------------------------------------

 NO OUTPUT CONTROL FOR STRESS PERIOD   35   TIME STEP    4
 
 SOLVING FOR HEAD 
                                                   Max.-Head-Change                         Max.-Flux-Residual
  Residual-Control   Outer-Iter.   Inner-Iter.     Column Row Layer    Maximum-Head-Change  Column Row Layer    Maximum-Flux-Residual          L2-NORM 
          0                 1           2             4    7     1       0.7235863375E-01       4    7    1         0.3802602403E+01      0.8242251912E+01
          0                 2           2             4    7     1      -0.7038591021E-02       4    7    1        -0.3802649393E+00      0.8242262792E+00
          0                 3           2             4    7     1       0.4793012792E-03       4    7    1         0.2661851278E-01      0.5769584256E-01
          0                 4           1             4    7     1      -0.1907184935E-04       4    7    1        -0.1088698894E-02      0.2359771514E-02

    ------------------------------------------------
       NWT REQUIRED            4 OUTER ITERATIONS 
       AND A TOTAL OF          7 INNER ITERATIONS.
    ------------------------------------------------

 NO OUTPUT CONTROL FOR STRESS PERIOD   35   TIME STEP    5
 
 SOLVING FOR HEAD 
                                                   Max.-Head-Change                         Max.-Flux-Residual
  Residual-Control   Outer-Iter.   Inner-Iter.     Column Row Layer    Maximum-Head-Change  Column Row Layer    Maximum-Flux-Residual          L2-NORM 
          0                 1           2             4    7     1       0.7152447617E-01       4    7    1         0.3759548884E+01      0.8092453804E+01
          0                 2           2             4    7     1      -0.6957451004E-02       4    7    1        -0.3759596381E+00      0.8092467371E+00
          0                 3           2             4    7     1       0.4737759376E-03       4    7    1         0.2631714109E-01      0.5664726679E-01
          0                 4           1             4    7     1      -0.1885199098E-04       4    7    1        -0.1076372786E-02      0.2316875688E-02

    ------------------------------------------------
       NWT REQUIRED            4 OUTER ITERATIONS 
       AND A TOTAL OF          7 INNER ITERATIONS.
    ------------------------------------------------

 NO OUTPUT CONTROL FOR STRESS PERIOD   35   TIME STEP    6
 
 SOLVING FOR HEAD 
                                                   Max.-Head-Change                         Max.-Flux-Residual
  Residual-Control   Outer-Iter.   Inner-Iter.     Column Row Layer    Maximum-Head-Change  Column Row Layer    Maximum-Flux-Residual          L2-NORM 
          0                 1           2             4    7     1       0.7068614079E-01       4    7    1         0.3716205404E+01      0.7947802924E+01
          0                 2           2             4    7     1      -0.6875904362E-02       4    7    1        -0.3716253246E+00      0.7947818289E+00
          0                 3           2             4    7     1       0.4682229083E-03       4    7    1         0.2601373868E-01      0.5563471755E-01
          0                 4           1             4    7     1      -0.1863103061E-04       4    7    1        -0.1063963608E-02      0.2275462166E-02

    ------------------------------------------------
       NWT REQUIRED            4 OUTER ITERATIONS 
       AND A TOTAL OF          7 INNER ITERATIONS.
    ------------------------------------------------

 NO OUTPUT CONTROL FOR STRESS PERIOD   35   TIME STEP    7
 
 SOLVING FOR HEAD 
                                                   Max.-Head-Change                         Max.-Flux-Residual
  Residual-Control   Outer-Iter.   Inner-Iter.     Column Row Layer    Maximum-Head-Change  Column Row Layer    Maximum-Flux-Residual          L2-NORM 
          0                 1           2             4    7     1       0.6984506797E-01       4    7    1         0.3672652522E+01      0.7808004061E+01
          0                 2           2             4    7     1      -0.6794091226E-02       4    7    1        -0.3672700566E+00      0.7808020840E+00
          0                 3           2             4    7     1       0.4626517340E-03       4    7    1         0.2570886961E-01      0.5465613562E-01
          0                 4           1             4    7     1      -0.1840934827E-04       4    7    1        -0.1051494442E-02      0.2235447536E-02

    ------------------------------------------------
       NWT REQUIRED            4 OUTER ITERATIONS 
       AND A TOTAL OF          7 INNER ITERATIONS.
    ------------------------------------------------

 NO OUTPUT CONTROL FOR STRESS PERIOD   35   TIME STEP    8
 
 SOLVING FOR HEAD 
                                                   Max.-Head-Change                         Max.-Flux-Residual
  Residual-Control   Outer-Iter.   Inner-Iter.     Column Row Layer    Maximum-Head-Change  Column Row Layer    Maximum-Flux-Residual          L2-NORM 
          0                 1           2             4    7     1       0.6900232955E-01       4    7    1         0.3628950430E+01      0.7672794341E+01
          0                 2           2             4    7     1      -0.6712115881E-02       4    7    1        -0.3628998546E+00      0.7672812356E+00
          0                 3           2             4    7     1       0.4570695153E-03       4    7    1         0.2540295526E-01      0.5370967292E-01
          0                 4           1             4    7     1      -0.1818722660E-04       4    7    1        -0.1038982518E-02      0.2196728288E-02

    ------------------------------------------------
       NWT REQUIRED            4 OUTER ITERATIONS 
       AND A TOTAL OF          7 INNER ITERATIONS.
    ------------------------------------------------

 NO OUTPUT CONTROL FOR STRESS PERIOD   35   TIME STEP    9
 
 SOLVING FOR HEAD 
                                                   Max.-Head-Change                         Max.-Flux-Residual
  Residual-Control   Outer-Iter.   Inner-Iter.     Column Row Layer    Maximum-Head-Change  Column Row Layer    Maximum-Flux-Residual          L2-NORM 
          0                 1           2             4    7     1       0.6815918569E-01       4    7    1         0.3585169193E+01      0.7541942133E+01
          0                 2           2             4    7     1      -0.6630100926E-02       4    7    1        -0.3585217266E+00      0.7541961131E+00
          0                 3           2             4    7     1       0.4514846017E-03       4    7    1         0.2509648622E-01      0.5279371130E-01
          0                 4           1             4    7     1      -0.1796499798E-04       4    7    1        -0.1026447922E-02      0.2159265616E-02

    ------------------------------------------------
       NWT REQUIRED            4 OUTER ITERATIONS 
       AND A TOTAL OF          7 INNER ITERATIONS.
    ------------------------------------------------

 NO OUTPUT CONTROL FOR STRESS PERIOD   35   TIME STEP   10
 
 SOLVING FOR HEAD 
                                                   Max.-Head-Change                         Max.-Flux-Residual
  Residual-Control   Outer-Iter.   Inner-Iter.     Column Row Layer    Maximum-Head-Change  Column Row Layer    Maximum-Flux-Residual          L2-NORM 
          0                 1           2             4    7     1       0.6731653225E-01       4    7    1         0.3541359654E+01      0.7415209216E+01
          0                 2           2             4    7     1      -0.6548133521E-02       4    7    1        -0.3541407582E+00      0.7415228979E+00
          0                 3           2             4    7     1       0.4459029273E-03       4    7    1         0.2478981843E-01      0.5190658285E-01
          0                 4           1             4    7     1      -0.1774289773E-04       4    7    1        -0.1013905195E-02      0.2122979656E-02

    ------------------------------------------------
       NWT REQUIRED            4 OUTER ITERATIONS 
       AND A TOTAL OF          7 INNER ITERATIONS.
    ------------------------------------------------

 NO OUTPUT CONTROL FOR STRESS PERIOD   35   TIME STEP   11
 
 SOLVING FOR HEAD 
                                                   Max.-Head-Change                         Max.-Flux-Residual
  Residual-Control   Outer-Iter.   Inner-Iter.     Column Row Layer    Maximum-Head-Change  Column Row Layer    Maximum-Flux-Residual          L2-NORM 
          0                 1           2             4    7     1       0.6647545843E-01       4    7    1         0.3497582760E+01      0.7292393988E+01
          0                 2           2             4    7     1      -0.6477930256E-02       4    7    1        -0.3505275241E+00      0.7293043891E+00
          0                 3           2             4    7     1       0.4411223035E-03       4    7    1         0.2453688906E-01      0.5105128933E-01
          0                 4           1             4    7     1      -0.1755267274E-04       4    7    1        -0.1003560388E-02      0.2088001967E-02

    ------------------------------------------------
       NWT REQUIRED            4 OUTER ITERATIONS 
       AND A TOTAL OF          7 INNER ITERATIONS.
    ------------------------------------------------

 NO OUTPUT CONTROL FOR STRESS PERIOD   35   TIME STEP   12
 
 SOLVING FOR HEAD 
                                                   Max.-Head-Change                         Max.-Flux-Residual
  Residual-Control   Outer-Iter.   Inner-Iter.     Column Row Layer    Maximum-Head-Change  Column Row Layer    Maximum-Flux-Residual          L2-NORM 
          0                 1           2             4    7     1       0.6560645221E-01       4    7    1         0.3453261608E+01      0.7173250953E+01
          0                 2           2             4    7     1      -0.6381783767E-02       4    7    1        -0.3453311502E+00      0.7173282853E+00
          0                 3           2             4    7     1       0.4345669964E-03       4    7    1         0.2417314375E-01      0.5021001575E-01
          0                 4           1             4    7     1      -0.1729183078E-04       4    7    1        -0.9886831865E-03      0.2053592219E-02

    ------------------------------------------------
       NWT REQUIRED            4 OUTER ITERATIONS 
       AND A TOTAL OF          7 INNER ITERATIONS.
    ------------------------------------------------

 NO OUTPUT CONTROL FOR STRESS PERIOD   35   TIME STEP   13
 
 SOLVING FOR HEAD 
                                                   Max.-Head-Change                         Max.-Flux-Residual
  Residual-Control   Outer-Iter.   Inner-Iter.     Column Row Layer    Maximum-Head-Change  Column Row Layer    Maximum-Flux-Residual          L2-NORM 
          0                 1           2             4    7     1       0.6475352556E-01       4    7    1         0.3408729717E+01      0.7057606200E+01
          0                 2           2             4    7     1      -0.6298932828E-02       4    7    1        -0.3408779160E+00      0.7058024133E+00
          0                 3           2             4    7     1       0.4289332639E-03       4    7    1         0.2386141771E-01      0.4940615012E-01
          0                 4           1             4    7     1      -0.1706765916E-04       4    7    1        -0.9759335560E-03      0.2020713454E-02

    ------------------------------------------------
       NWT REQUIRED            4 OUTER ITERATIONS 
       AND A TOTAL OF          7 INNER ITERATIONS.
    ------------------------------------------------

 NO OUTPUT CONTROL FOR STRESS PERIOD   35   TIME STEP   14
 
 SOLVING FOR HEAD 
                                                   Max.-Head-Change                         Max.-Flux-Residual
  Residual-Control   Outer-Iter.   Inner-Iter.     Column Row Layer    Maximum-Head-Change  Column Row Layer    Maximum-Flux-Residual          L2-NORM 
          0                 1           2             4    7     1       0.6390511986E-01       4    7    1         0.3364407066E+01      0.6945291231E+01
          0                 2           2             4    7     1      -0.6216297529E-02       4    7    1        -0.3364456004E+00      0.6945313250E+00
          0                 3           2             4    7     1       0.4233061128E-03       4    7    1         0.2355115590E-01      0.4861716862E-01
          0                 4           1             4    7     1      -0.1684374967E-04       4    7    1        -0.9632438366E-03      0.1988442070E-02

    ------------------------------------------------
       NWT REQUIRED            4 OUTER ITERATIONS 
       AND A TOTAL OF          7 INNER ITERATIONS.
    ------------------------------------------------

 NO OUTPUT CONTROL FOR STRESS PERIOD   35   TIME STEP   15
 
 SOLVING FOR HEAD 
                                                   Max.-Head-Change                         Max.-Flux-Residual
  Residual-Control   Outer-Iter.   Inner-Iter.     Column Row Layer    Maximum-Head-Change  Column Row Layer    Maximum-Flux-Residual          L2-NORM 
          0                 1           2             4    7     1       0.6306236030E-01       4    7    1         0.3320337541E+01      0.6836191574E+01
          0                 2           2             4    7     1      -0.6134319178E-02       4    7    1        -0.3320385911E+00      0.6836213690E+00
          0                 3           2             4    7     1       0.4177236992E-03       4    7    1         0.2324266566E-01      0.4785347157E-01
          0                 4           1             4    7     1      -0.1662162006E-04       4    7    1        -0.9506265662E-03      0.1957207563E-02

    ------------------------------------------------
       NWT REQUIRED            4 OUTER ITERATIONS 
       AND A TOTAL OF          7 INNER ITERATIONS.
    ------------------------------------------------

 NO OUTPUT CONTROL FOR STRESS PERIOD   35   TIME STEP   16
 
 SOLVING FOR HEAD 
                                                   Max.-Head-Change                         Max.-Flux-Residual
  Residual-Control   Outer-Iter.   Inner-Iter.     Column Row Layer    Maximum-Head-Change  Column Row Layer    Maximum-Flux-Residual          L2-NORM 
          0                 1           2             4    7     1       0.6222572276E-01       4    7    1         0.3276554984E+01      0.6730155849E+01
          0                 2           2             4    7     1      -0.6052936258E-02       4    7    1        -0.3276602738E+00      0.6730177992E+00
          0                 3           2             4    7     1       0.4121818326E-03       4    7    1         0.2293618388E-01      0.4711116263E-01
          0                 4           1             4    7     1      -0.1640110420E-04       4    7    1        -0.9380914396E-03      0.1926976619E-02

    ------------------------------------------------
       NWT REQUIRED            4 OUTER ITERATIONS 
       AND A TOTAL OF          7 INNER ITERATIONS.
    ------------------------------------------------

 NO OUTPUT CONTROL FOR STRESS PERIOD   35   TIME STEP   17
 
 SOLVING FOR HEAD 
                                                   Max.-Head-Change                         Max.-Flux-Residual
  Residual-Control   Outer-Iter.   Inner-Iter.     Column Row Layer    Maximum-Head-Change  Column Row Layer    Maximum-Flux-Residual          L2-NORM 
          0                 1           2             4    7     1       0.6139547299E-01       4    7    1         0.3233075307E+01      0.6627046255E+01
          0                 2           2             4    7     1      -0.5972174629E-02       4    7    1        -0.3233122398E+00      0.6627068395E+00
          0                 3           2             4    7     1       0.4066822744E-03       4    7    1         0.2263182199E-01      0.4638945167E-01
          0                 4           1             4    7     1      -0.1618227127E-04       4    7    1        -0.9256430189E-03      0.1897331131E-02

    ------------------------------------------------
       NWT REQUIRED            4 OUTER ITERATIONS 
       AND A TOTAL OF          7 INNER ITERATIONS.
    ------------------------------------------------

 NO OUTPUT CONTROL FOR STRESS PERIOD   35   TIME STEP   18
 
 SOLVING FOR HEAD 
                                                   Max.-Head-Change                         Max.-Flux-Residual
  Residual-Control   Outer-Iter.   Inner-Iter.     Column Row Layer    Maximum-Head-Change  Column Row Layer    Maximum-Flux-Residual          L2-NORM 
          0                 1           2             4    7     1       0.6057249923E-01       4    7    1         0.3189948565E+01      0.6526742434E+01
          0                 2           2             4    7     1      -0.5892120702E-02       4    7    1        -0.3189994958E+00      0.6526764439E+00
          0                 3           2             4    7     1       0.4012309088E-03       4    7    1         0.2232993045E-01      0.4568731635E-01
          0                 4           1             4    7     1      -0.1596535602E-04       4    7    1        -0.9132956186E-03      0.1868610160E-02

    ------------------------------------------------
       NWT REQUIRED            4 OUTER ITERATIONS 
       AND A TOTAL OF          7 INNER ITERATIONS.
    ------------------------------------------------

 NO OUTPUT CONTROL FOR STRESS PERIOD   35   TIME STEP   19
 
 SOLVING FOR HEAD 
                                                   Max.-Head-Change                         Max.-Flux-Residual
  Residual-Control   Outer-Iter.   Inner-Iter.     Column Row Layer    Maximum-Head-Change  Column Row Layer    Maximum-Flux-Residual          L2-NORM 
          0                 1           2             4    7     1       0.5975696216E-01       4    7    1         0.3147184533E+01      0.6429127333E+01
          0                 2           2             4    7     1      -0.5812790115E-02       4    7    1        -0.3147230195E+00      0.6429149183E+00
          0                 3           2             4    7     1       0.3958288006E-03       4    7    1         0.2203057768E-01      0.4500401370E-01
          0                 4           1             4    7     1      -0.1575040116E-04       4    7    1        -0.9010520835E-03      0.1840663232E-02

    ------------------------------------------------
       NWT REQUIRED            4 OUTER ITERATIONS 
       AND A TOTAL OF          7 INNER ITERATIONS.
    ------------------------------------------------

 NO OUTPUT CONTROL FOR STRESS PERIOD   35   TIME STEP   20
 
 SOLVING FOR HEAD 
                                                   Max.-Head-Change                         Max.-Flux-Residual
  Residual-Control   Outer-Iter.   Inner-Iter.     Column Row Layer    Maximum-Head-Change  Column Row Layer    Maximum-Flux-Residual          L2-NORM 
          0                 1           2             4    7     1       0.5894937879E-01       4    7    1         0.3104813313E+01      0.6334073551E+01
          0                 2           2             4    7     1      -0.5734233168E-02       4    7    1        -0.3104858219E+00      0.6334095157E+00
          0                 3           2             4    7     1       0.3904793745E-03       4    7    1         0.2173397443E-01      0.4433863524E-01
          0                 4           1             4    7     1      -0.1553754277E-04       4    7    1        -0.8889209912E-03      0.1813452483E-02

    ------------------------------------------------
       NWT REQUIRED            4 OUTER ITERATIONS 
       AND A TOTAL OF          7 INNER ITERATIONS.
    ------------------------------------------------

 NO OUTPUT CONTROL FOR STRESS PERIOD   35   TIME STEP   21
 
 SOLVING FOR HEAD 
                                                   Max.-Head-Change                         Max.-Flux-Residual
  Residual-Control   Outer-Iter.   Inner-Iter.     Column Row Layer    Maximum-Head-Change  Column Row Layer    Maximum-Flux-Residual          L2-NORM 
          0                 1           2             4    7     1       0.5815009168E-01       4    7    1         0.3062854455E+01      0.6241493129E+01
          0                 2           2             4    7     1      -0.5656483187E-02       4    7    1        -0.3062898582E+00      0.6241514498E+00
          0                 3           2             4    7     1       0.3851849002E-03       4    7    1         0.2144025759E-01      0.4369056979E-01
          0                 4           1             4    7     1      -0.1532687055E-04       4    7    1        -0.8769079518E-03      0.1786946428E-02

    ------------------------------------------------
       NWT REQUIRED            4 OUTER ITERATIONS 
       AND A TOTAL OF          7 INNER ITERATIONS.
    ------------------------------------------------

 NO OUTPUT CONTROL FOR STRESS PERIOD   35   TIME STEP   22
 
 SOLVING FOR HEAD 
                                                   Max.-Head-Change                         Max.-Flux-Residual
  Residual-Control   Outer-Iter.   Inner-Iter.     Column Row Layer    Maximum-Head-Change  Column Row Layer    Maximum-Flux-Residual          L2-NORM 
          0                 1           2             4    7     1       0.5735939743E-01       4    7    1         0.3021325720E+01      0.6151277830E+01
          0                 2           2             4    7     1      -0.5579569032E-02       4    7    1        -0.3021369052E+00      0.6151298842E+00
          0                 3           2             4    7     1       0.3799473428E-03       4    7    1         0.2114955150E-01      0.4305906442E-01
          0                 4           1             4    7     1      -0.1511846323E-04       4    7    1        -0.8650180555E-03      0.1761119685E-02

    ------------------------------------------------
       NWT REQUIRED            4 OUTER ITERATIONS 
       AND A TOTAL OF          7 INNER ITERATIONS.
    ------------------------------------------------

 NO OUTPUT CONTROL FOR STRESS PERIOD   35   TIME STEP   23
 
 SOLVING FOR HEAD 
                                                   Max.-Head-Change                         Max.-Flux-Residual
  Residual-Control   Outer-Iter.   Inner-Iter.     Column Row Layer    Maximum-Head-Change  Column Row Layer    Maximum-Flux-Residual          L2-NORM 
          0                 1           2             4    7     1       0.5657769153E-01       4    7    1         0.2980249750E+01      0.6063334516E+01
          0                 2           2             4    7     1      -0.5503529178E-02       4    7    1        -0.2980292272E+00      0.6063355229E+00
          0                 3           2             4    7     1       0.3747693223E-03       4    7    1         0.2086201468E-01      0.4244345454E-01
          0                 4           1             4    7     1      -0.1491242512E-04       4    7    1        -0.8532577892E-03      0.1735943495E-02

    ------------------------------------------------
       NWT REQUIRED            4 OUTER ITERATIONS 
       AND A TOTAL OF          7 INNER ITERATIONS.
    ------------------------------------------------

 NO OUTPUT CONTROL FOR STRESS PERIOD   35   TIME STEP   24
 
 SOLVING FOR HEAD 
                                                   Max.-Head-Change                         Max.-Flux-Residual
  Residual-Control   Outer-Iter.   Inner-Iter.     Column Row Layer    Maximum-Head-Change  Column Row Layer    Maximum-Flux-Residual          L2-NORM 
          0                 1           2             4    7     1       0.5580493004E-01       4    7    1         0.2939625265E+01      0.5977575109E+01
          0                 2           2             4    7     1      -0.5428359355E-02       4    7    1        -0.2939666967E+00      0.5977595409E+00
          0                 3           2             4    7     1       0.3696505474E-03       4    7    1         0.2057763819E-01      0.4184313384E-01
          0                 4           1             4    7     1      -0.1470874401E-04       4    7    1        -0.8416267556E-03      0.1711387757E-02

    ------------------------------------------------
       NWT REQUIRED            4 OUTER ITERATIONS 
       AND A TOTAL OF          7 INNER ITERATIONS.
    ------------------------------------------------

 NO OUTPUT CONTROL FOR STRESS PERIOD   35   TIME STEP   25
 
 SOLVING FOR HEAD 
                                                   Max.-Head-Change                         Max.-Flux-Residual
  Residual-Control   Outer-Iter.   Inner-Iter.     Column Row Layer    Maximum-Head-Change  Column Row Layer    Maximum-Flux-Residual          L2-NORM 
          0                 1           2             4    7     1       0.5504157832E-01       4    7    1         0.2899479035E+01      0.5893920724E+01
          0                 2           2             4    7     1      -0.5354104835E-02       4    7    1        -0.2899519910E+00      0.5893940636E+00
          0                 3           2             4    7     1       0.3645941015E-03       4    7    1         0.2029660945E-01      0.4125755181E-01
          0                 4           1             4    7     1      -0.1450754311E-04       4    7    1        -0.8301326545E-03      0.1687434676E-02

    ------------------------------------------------
       NWT REQUIRED            4 OUTER ITERATIONS 
       AND A TOTAL OF          7 INNER ITERATIONS.
    ------------------------------------------------

 NO OUTPUT CONTROL FOR STRESS PERIOD   35   TIME STEP   26
 
 SOLVING FOR HEAD 
                                                   Max.-Head-Change                         Max.-Flux-Residual
  Residual-Control   Outer-Iter.   Inner-Iter.     Column Row Layer    Maximum-Head-Change  Column Row Layer    Maximum-Flux-Residual          L2-NORM 
          0                 1           2             4    7     1       0.5428779584E-01       4    7    1         0.2859820666E+01      0.5812289346E+01
          0                 2           2             4    7     1      -0.5280781136E-02       4    7    1        -0.2859860710E+00      0.5812308871E+00
          0                 3           2             4    7     1       0.3596010417E-03       4    7    1         0.2001899573E-01      0.4068612723E-01
          0                 4           1             4    7     1      -0.1430886453E-04       4    7    1        -0.8187782335E-03      0.1664063859E-02

    ------------------------------------------------
       NWT REQUIRED            4 OUTER ITERATIONS 
       AND A TOTAL OF          7 INNER ITERATIONS.
    ------------------------------------------------

 NO OUTPUT CONTROL FOR STRESS PERIOD   35   TIME STEP   27
 
 SOLVING FOR HEAD 
                                                   Max.-Head-Change                         Max.-Flux-Residual
  Residual-Control   Outer-Iter.   Inner-Iter.     Column Row Layer    Maximum-Head-Change  Column Row Layer    Maximum-Flux-Residual          L2-NORM 
          0                 1           2             4    7     1       0.5354371425E-01       4    7    1         0.2820658427E+01      0.5732612158E+01
          0                 2           2             4    7     1      -0.5208401066E-02       4    7    1        -0.2820697639E+00      0.5732631214E+00
          0                 3           2             4    7     1       0.3546722391E-03       4    7    1         0.1974485489E-01      0.4012838930E-01
          0                 4           1             4    7     1      -0.1411274270E-04       4    7    1        -0.8075658536E-03      0.1641264565E-02

    ------------------------------------------------
       NWT REQUIRED            4 OUTER ITERATIONS 
       AND A TOTAL OF          7 INNER ITERATIONS.
    ------------------------------------------------

 NO OUTPUT CONTROL FOR STRESS PERIOD   35   TIME STEP   28
 
 SOLVING FOR HEAD 
                                                   Max.-Head-Change                         Max.-Flux-Residual
  Residual-Control   Outer-Iter.   Inner-Iter.     Column Row Layer    Maximum-Head-Change  Column Row Layer    Maximum-Flux-Residual          L2-NORM 
          0                 1           2             4    7     1       0.5280930365E-01       4    7    1         0.2781991879E+01      0.5654807097E+01
          0                 2           2             4    7     1      -0.5136961719E-02       4    7    1        -0.2782030258E+00      0.5654825690E+00
          0                 3           2             4    7     1       0.3498074967E-03       4    7    1         0.1947418391E-01      0.3958374497E-01
          0                 4           1             4    7     1      -0.1391917026E-04       4    7    1        -0.7964954036E-03      0.1618969717E-02

    ------------------------------------------------
       NWT REQUIRED            4 OUTER ITERATIONS 
       AND A TOTAL OF          7 INNER ITERATIONS.
    ------------------------------------------------

 NO OUTPUT CONTROL FOR STRESS PERIOD   35   TIME STEP   29
 
 SOLVING FOR HEAD 
                                                   Max.-Head-Change                         Max.-Flux-Residual
  Residual-Control   Outer-Iter.   Inner-Iter.     Column Row Layer    Maximum-Head-Change  Column Row Layer    Maximum-Flux-Residual          L2-NORM 
          0                 1           2             4    7     1       0.5208491983E-01       4    7    1         0.2743841268E+01      0.5578822047E+01
          0                 2           2             4    7     1      -0.5066497709E-02       4    7    1        -0.2743878817E+00      0.5578840291E+00
          0                 3           2             4    7     1       0.3450091705E-03       4    7    1         0.1920712448E-01      0.3905185677E-01
          0                 4           1             4    7     1      -0.1372824023E-04       4    7    1        -0.7855726410E-03      0.1597231275E-02

    ------------------------------------------------
       NWT REQUIRED            4 OUTER ITERATIONS 
       AND A TOTAL OF          7 INNER ITERATIONS.
    ------------------------------------------------

 NO OUTPUT CONTROL FOR STRESS PERIOD   35   TIME STEP   30



 STREAM LISTING     PERIOD     35   STEP       30

 LAYER ROW COL. STREAM  RCH.  FLOW INTO     FLOW TO   FLOW OUT OF   OVRLND.     DIRECT     STREAM       STREAM     STREAM     STREAM   STREAMBED  STREAMBED
                SEG.NO.  NO.  STRM. RCH.    AQUIFER    STRM. RCH.    RUNOFF     PRECIP       ET          HEAD       DEPTH      WIDTH   CONDCTNC.   GRADIENT

   1    1    1     1     1    1.9000E+01  2.1427E-01   1.8786E+01  0.000E+00  0.000E+00  0.000E+00  1.09413E+03  1.082E+00  1.166E+01  5.249E-02  1.361E+00
   1    2    2     1     2    1.8786E+01  3.3054E-01   1.8455E+01  0.000E+00  0.000E+00  0.000E+00  1.08914E+03  1.077E+00  1.158E+01  8.107E-02  1.359E+00
   1    3    3     1     3    1.8455E+01  2.8064E-01   1.8175E+01  0.000E+00  0.000E+00  0.000E+00  1.08349E+03  1.072E+00  1.149E+01  6.892E-02  1.357E+00
   1    3    4     1     4    1.8175E+01  2.5740E-01   1.7917E+01  0.000E+00  0.000E+00  0.000E+00  1.07848E+03  1.068E+00  1.140E+01  6.328E-02  1.356E+00
   1    4    5     2     1    1.5917E+01  3.0542E-01   1.5612E+01  0.000E+00  0.000E+00  0.000E+00  1.07285E+03  9.157E-01  1.200E+01  7.800E-02  1.305E+00
   1    5    6     2     2    1.5612E+01  2.3438E-01   1.5377E+01  0.000E+00  0.000E+00  0.000E+00  1.06742E+03  9.063E-01  1.200E+01  6.000E-02  1.302E+00
   1    6    6     2     3    1.5377E+01  2.3388E-01   1.5143E+01  0.000E+00  0.000E+00  0.000E+00  1.06269E+03  8.980E-01  1.200E+01  6.000E-02  1.299E+00
   1    7    6     2     4    1.5143E+01  2.3338E-01   1.4910E+01  0.000E+00  0.000E+00  0.000E+00  1.05797E+03  8.897E-01  1.200E+01  6.000E-02  1.297E+00
   1    8    6     2     5    1.4910E+01  2.3289E-01   1.4677E+01  0.000E+00  0.000E+00  0.000E+00  1.05324E+03  8.814E-01  1.200E+01  6.000E-02  1.294E+00
   1    3    5     3     1    2.0000E+00  2.8252E-01   1.7175E+00  0.000E+00  0.000E+00  0.000E+00  1.07555E+03  1.909E+00  9.636E+00  7.227E-02  1.955E+00
   1    3    6     3     2    1.7175E+00  2.4905E-01   1.4684E+00  0.000E+00  0.000E+00  0.000E+00  1.07264E+03  1.727E+00  8.909E+00  6.682E-02  1.864E+00
   1    3    7     3     3    1.4684E+00  1.9718E-01   1.2712E+00  0.000E+00  0.000E+00  0.000E+00  1.06987E+03  1.555E+00  8.218E+00  5.547E-02  1.777E+00
   1    4    8     3     4    1.2712E+00  2.2567E-01   1.0456E+00  0.000E+00  0.000E+00  0.000E+00  1.06682E+03  1.364E+00  7.455E+00  6.709E-02  1.682E+00
   1    5    8     3     5    1.0456E+00  1.5790E-01   8.8768E-01  0.000E+00  0.000E+00  0.000E+00  1.06362E+03  1.164E+00  6.655E+00  4.991E-02  1.582E+00
   1    6    8     3     6    8.8768E-01  5.5980E-02   8.3170E-01  0.000E+00  0.000E+00  0.000E+00  1.06158E+03  1.036E+00  6.145E+00  1.844E-02  1.518E+00
   1    5   10     4     1    1.0000E+01  9.0919E-02   9.9091E+00  0.000E+00  0.000E+00  0.000E+00  1.07836E+03  6.368E-01  1.000E+01  2.500E-02  1.212E+00
   1    5    9     4     2    9.9091E+00  1.8158E-01   9.7275E+00  0.000E+00  0.000E+00  0.000E+00  1.07154E+03  6.315E-01  1.000E+01  5.000E-02  1.211E+00
   1    6    8     4     3    9.7275E+00  1.2689E-01   9.6006E+00  0.000E+00  0.000E+00  0.000E+00  1.06381E+03  6.256E-01  1.000E+01  3.500E-02  1.209E+00
   1    6    8     5     1    1.0432E+01  2.2686E-01   1.0205E+01  0.000E+00  0.000E+00  0.000E+00  1.05868E+03  6.790E-01  1.542E+01  6.166E-02  1.226E+00
   1    7    7     5     2    1.0205E+01  2.7894E-01   9.9265E+00  0.000E+00  0.000E+00  0.000E+00  1.05417E+03  6.732E-01  1.519E+01  7.594E-02  1.224E+00
   1    8    7     5     3    9.9265E+00  1.9221E-01   9.7343E+00  0.000E+00  0.000E+00  0.000E+00  1.04992E+03  6.676E-01  1.497E+01  5.241E-02  1.223E+00
   1    8    6     5     4    9.7343E+00  1.3577E-01   9.5985E+00  0.000E+00  0.000E+00  0.000E+00  1.04691E+03  6.637E-01  1.482E+01  3.706E-02  1.221E+00
   1    9    6     6     1    2.4276E+01  2.5176E-01   2.4024E+01  0.000E+00  0.000E+00  0.000E+00  1.04392E+03  1.196E+00  1.200E+01  6.000E-02  1.399E+00
   1   10    7     6     2    2.4024E+01  2.5131E-01   2.3773E+01  0.000E+00  0.000E+00  0.000E+00  1.03937E+03  1.188E+00  1.200E+01  6.000E-02  1.396E+00
   1   11    7     6     3    2.3773E+01  2.5086E-01   2.3522E+01  0.000E+00  0.000E+00  0.000E+00  1.03482E+03  1.181E+00  1.200E+01  6.000E-02  1.394E+00
   1   12    7     6     4    2.3522E+01  2.5041E-01   2.3271E+01  0.000E+00  0.000E+00  0.000E+00  1.03026E+03  1.173E+00  1.200E+01  6.000E-02  1.391E+00
   1   13    7     6     5    2.3271E+01  7.3891E-03   2.3264E+01  0.000E+00  0.000E+00  0.000E+00  1.02708E+03  1.170E+00  1.200E+01  2.400E-02  1.026E-01
   1   14    9     7     1    1.5000E+02  1.3551E+00   1.4864E+02  0.000E+00  0.000E+00  0.000E+00  1.03987E+03  2.288E+00  5.529E+01  5.593E-01  8.076E-01
   1   13    8     7     2    1.4864E+02  1.9221E+00   1.4672E+02  0.000E+00  0.000E+00  0.000E+00  1.03478E+03  2.279E+00  5.526E+01  6.148E-01  1.042E+00
   1   13    7     7     3    1.4672E+02  1.6294E+00   1.4509E+02  0.000E+00  0.000E+00  0.000E+00  1.02969E+03  2.269E+00  5.521E+01  5.584E-01  9.727E-01
   1   13    6     8     1    1.6836E+02  1.0697E+00   1.6729E+02  0.000E+00  0.000E+00  0.000E+00  1.02481E+03  2.938E+00  4.260E+01  4.341E-01  8.213E-01
   1   13    5     8     2    1.6729E+02  3.1560E-01   1.6697E+02  0.000E+00  0.000E+00  0.000E+00  1.01856E+03  2.933E+00  4.253E+01  4.334E-01  2.427E-01
   1   13    4     8     3    1.6697E+02 -1.9604E+00   1.6893E+02  0.000E+00  0.000E+00  0.000E+00  1.01231E+03  2.939E+00  4.261E+01  4.342E+00 -1.505E-01
   1   13    3     8     4    1.6893E+02 -3.4224E+00   1.7235E+02  0.000E+00  0.000E+00  0.000E+00  1.00608E+03  2.956E+00  4.287E+01  4.368E+00 -2.612E-01
   1   13    2     8     5    1.7235E+02 -2.5219E+00   1.7488E+02  0.000E+00  0.000E+00  0.000E+00  9.99851E+02  2.976E+00  4.315E+01  4.397E+00 -1.912E-01
   1   13    1     8     6    1.7488E+02 -1.9683E+00   1.7685E+02  0.000E+00  0.000E+00  0.000E+00  9.94865E+02  2.990E+00  4.335E+01  2.651E+00 -2.475E-01





UNSATURATED ZONE PACKAGE VOLUMETRIC BUDGET FOR  TIME STEP    30 STRESS PERIOD   35
  ------------------------------------------------------------------------------



     CUMULATIVE VOLUMES      L**3       RATES FOR THIS TIME STEP      L**3/T
     ------------------                 ------------------------

           IN:                                      IN:
           ---                                      ---
        INFILTRATION =  1587949405.2456          INFILTRATION =           4.4075

          OUT:                                     OUT:
          ----                                     ----
              UZF ET =  1495948123.4646                UZF ET =           3.7800
        UZF RECHARGE =      884424.5976          UZF RECHARGE =       0.0000E+00

            IN - OUT =    91116857.1834              IN - OUT =           0.6275

          STORAGE:                                 STORAGE:
          --------                                 --------
      STORAGE CHANGE =    91117786.2760        STORAGE CHANGE =           0.6275

 PERCENT DISCREPANCY IS DIFFERENCE BETWEEN IN-OUT MINUS CHANGE IN STORAGE
 DIVIDED BY THE AVERAGE OF IN AND OUT TIMES 100

 PERCENT DISCREPANCY =          -0.00     PERCENT DISCREPANCY =           0.00






1
  VOLUMETRIC BUDGET FOR AGRICULTURAL FIELDS AT TIME STEP   30, STRESS PERIOD  35
  ------------------------------------------------------------------------------

     CUMULATIVE VOLUMES      L**3       RATES FOR THIS TIME STEP      L**3/T
     ------------------                 ------------------------

           IN:                                      IN:
           ---                                      ---
               AG WELLS  =  1193757312.0000                 AG WELLS  =           0.0000
      DIVERSION SEGMENTS =           0.0000        DIVERSION SEGMENTS =           0.0000
           GW IRRIGATION =           0.0000             GW IRRIGATION =           0.0000
           SW IRRIGATION =           0.0000             SW IRRIGATION =           0.0000
        SYSTEM LOSSES GW =           0.0000          SYSTEM LOSSES GW =           0.0000
        SYSTEM LOSSES SW =           0.0000          SYSTEM LOSSES SW =           0.0000

                TOTAL IN =  1193757312.0000                  TOTAL IN =           0.0000

          OUT:                                     OUT:
          ----                                     ----
               AG WELLS  =           0.0000                 AG WELLS  =           0.0000
      DIVERSION SEGMENTS =           0.0000        DIVERSION SEGMENTS =           0.0000
           GW IRRIGATION =  1193757312.0000             GW IRRIGATION =           0.0000
           SW IRRIGATION =           0.0000             SW IRRIGATION =           0.0000
        SYSTEM LOSSES GW =           0.0000          SYSTEM LOSSES GW =           0.0000
        SYSTEM LOSSES SW =           0.0000          SYSTEM LOSSES SW =           0.0000

               TOTAL OUT =  1193757312.0000                 TOTAL OUT =           0.0000

                IN - OUT =           0.0000                  IN - OUT =           0.0000

     PERCENT DISCREPANCY =           0.00         PERCENT DISCREPANCY =           0.00



1
  VOLUMETRIC BUDGET FOR ENTIRE MODEL AT END OF TIME STEP   30, STRESS PERIOD  35
  ------------------------------------------------------------------------------

     CUMULATIVE VOLUMES      L**3       RATES FOR THIS TIME STEP      L**3/T
     ------------------                 ------------------------

           IN:                                      IN:
           ---                                      ---
             STORAGE     =  1585147520.0000               STORAGE     =          12.6626
       CONSTANT HEAD     =           0.0000         CONSTANT HEAD     =           0.0000
     HEAD DEP BOUNDS     =    25576540.0000       HEAD DEP BOUNDS     =           0.2871
      STREAM LEAKAGE     =  1096698112.0000        STREAM LEAKAGE     =          12.0279
        UZF RECHARGE     =      884424.5000          UZF RECHARGE     =           0.0000
               GW ET     =           0.0000                 GW ET     =           0.0000
     SURFACE LEAKAGE     =           0.0000       SURFACE LEAKAGE     =           0.0000
           AG WELLS      =           0.0000             AG WELLS      =           0.0000

                TOTAL IN =  2708306688.0000                  TOTAL IN =          24.9776

          OUT:                                     OUT:
          ----                                     ----
             STORAGE     =   549366208.0000               STORAGE     =          14.8155
       CONSTANT HEAD     =           0.0000         CONSTANT HEAD     =           0.0000
     HEAD DEP BOUNDS     =    26193340.0000       HEAD DEP BOUNDS     =           0.2891
      STREAM LEAKAGE     =   921646848.0000        STREAM LEAKAGE     =           9.8731
        UZF RECHARGE     =           0.0000          UZF RECHARGE     =           0.0000
               GW ET     =    17343536.0000                 GW ET     =           0.0000
     SURFACE LEAKAGE     =           0.0000       SURFACE LEAKAGE     =           0.0000
           AG WELLS      =  1193757312.0000             AG WELLS      =           0.0000

               TOTAL OUT =  2708307200.0000                 TOTAL OUT =          24.9776

                IN - OUT =        -512.0000                  IN - OUT =       1.1444E-05

     PERCENT DISCREPANCY =          -0.00         PERCENT DISCREPANCY =           0.00






         TIME SUMMARY AT END OF TIME STEP   30 IN STRESS PERIOD   35
                    SECONDS     MINUTES      HOURS       DAYS        YEARS
                    -----------------------------------------------------------
   TIME STEP LENGTH  87667.      1461.1      24.352      1.0147     2.77799E-03
 STRESS PERIOD TIME 2.63000E+06  43833.      730.56      30.440     8.33397E-02
         TOTAL TIME 8.95061E+07 1.49177E+06  24863.      1036.0      2.8363    
1
1
                            STRESS PERIOD NO.   36, LENGTH =   2630000.    
                            -----------------------------------------------

                              NUMBER OF TIME STEPS =    30

                               MULTIPLIER FOR DELT =     1.000

                            INITIAL TIME STEP SIZE =   87666.66    

 REUSING NON-PARAMETER GHB CELLS FROM LAST STRESS PERIOD

      2 GHB CELLS

 REUSING STREAM SEGMENT DATA FROM LAST STRESS PERIOD



            AREAL INFILTRATION RATE
 READING ON UNIT   19 WITH FORMAT: (10F4.0)            

            1           2           3           4           5           6           7           8           9          10
 ........................................................................................................................
   1   1.2000E-09   0.000       0.000       0.000       0.000       0.000       0.000       0.000       0.000       0.000    
   2   2.1000E-09  2.0000E-09  8.0000E-10  8.5000E-09   0.000       0.000       0.000       0.000       0.000       0.000    
   3   5.0000E-10  1.1000E-09  8.8000E-09  5.5000E-09   0.000       0.000       0.000       0.000       0.000       0.000    
   4   8.5000E-09  1.1000E-09  1.1000E-09  1.1000E-09  2.0000E-09   0.000       0.000       0.000       0.000       0.000    
   5   8.5000E-09  1.1000E-09  1.1000E-09  1.1000E-09  1.1000E-09   0.000       0.000       0.000       0.000       0.000    
   6   8.5000E-09  5.2000E-09  2.1000E-09  1.1000E-09  1.5000E-09   0.000       0.000       0.000       0.000       0.000    
   7   8.5000E-09  5.2000E-09  2.1000E-09  1.2000E-09  2.0000E-09   0.000       0.000       0.000       0.000       0.000    
   8   5.0000E-10  5.2000E-09  2.1000E-09  1.2000E-09  5.0000E-09   0.000       0.000       0.000       0.000       0.000    
   9   5.0000E-10  5.2000E-09  2.1000E-09  1.2000E-09  5.0000E-09   0.000       0.000       0.000       0.000       0.000    
  10   5.0000E-10  5.2000E-09  2.1000E-09  1.2000E-09  5.8000E-09   0.000       0.000       0.000       0.000       0.000    
  11   1.0000E-10  1.1000E-09  1.1000E-09  1.2000E-09  5.0000E-09   0.000       0.000       0.000       0.000       0.000    
  12   1.1000E-09  1.1000E-09  1.1000E-09  1.1000E-09  2.0000E-09   0.000       0.000       0.000       0.000       0.000    
  13   1.1000E-09  2.2000E-09  2.2000E-09  2.1000E-09  1.0000E-09   0.000       0.000       0.000       0.000       0.000    
  14   2.0000E-10  5.5000E-09  5.5000E-09  5.2000E-09  1.0000E-09   0.000       0.000       0.000       0.000       0.000    
  15    0.000      8.8000E-09  8.8000E-09   0.000       0.000       0.000       0.000       0.000       0.000       0.000    

                  ET RATE =  5.000000E-10

 USING ET EXTINCTION DEPTH FROM PREVIOUS STRESS PERIOD. CURRENT PERIOD IS:      36

 USING EXTINCTION WATER CONTENT FROM PREVIOUS STRESS PERIOD. CURRENT PERIOD IS:      36

 USING AIR ENTRY PRESSURE FROM PREVIOUS STRESS PERIOD. CURRENT PERIOD IS:      36

 USING ROOT PRESSURE HEAD FROM PREVIOUS STRESS PERIOD. CURRENT PERIOD IS:      36

 USING ROOT ACTIVITY FROM PREVIOUS STRESS PERIOD. CURRENT PERIOD IS:      36

 PROCESSING AG STRESS PERIOD DATA

 READING AG STRESS PERIOD DATA

 READING IRRIGATION WELL

 END PROCESSING AG STRESS PERIOD DATA OPTIONS
 
 SOLVING FOR HEAD 
                                                   Max.-Head-Change                         Max.-Flux-Residual
  Residual-Control   Outer-Iter.   Inner-Iter.     Column Row Layer    Maximum-Head-Change  Column Row Layer    Maximum-Flux-Residual          L2-NORM 
          0                 1           2             4    7     1       0.5137048407E-01       4    7    1         0.2706203246E+01      0.5504583522E+01
          0                 2           2             4    7     1      -0.4997001380E-02       4    7    1        -0.2706239970E+00      0.5504601082E+00
          0                 3           2             4    7     1       0.3402767403E-03       4    7    1         0.1894365322E-01      0.3853216576E-01
          0                 4           1             4    7     1      -0.1353993258E-04       4    7    1        -0.7747966670E-03      0.1575969048E-02

    ------------------------------------------------
       NWT REQUIRED            4 OUTER ITERATIONS 
       AND A TOTAL OF          7 INNER ITERATIONS.
    ------------------------------------------------

 NO OUTPUT CONTROL FOR STRESS PERIOD   36   TIME STEP    1
 
 SOLVING FOR HEAD 
                                                   Max.-Head-Change                         Max.-Flux-Residual
  Residual-Control   Outer-Iter.   Inner-Iter.     Column Row Layer    Maximum-Head-Change  Column Row Layer    Maximum-Flux-Residual          L2-NORM 
          0                 1           2             4    7     1       0.5066603750E-01       4    7    1         0.2669080996E+01      0.5432034409E+01
          0                 2           2             4    7     1      -0.4928476734E-02       4    7    1        -0.2669116900E+00      0.5432051466E+00
          0                 3           2             4    7     1       0.3356104772E-03       4    7    1         0.1868379238E-01      0.3802431580E-01
          0                 4           1             4    7     1      -0.1335425743E-04       4    7    1        -0.7641683280E-03      0.1555194785E-02

    ------------------------------------------------
       NWT REQUIRED            4 OUTER ITERATIONS 
       AND A TOTAL OF          7 INNER ITERATIONS.
    ------------------------------------------------

 NO OUTPUT CONTROL FOR STRESS PERIOD   36   TIME STEP    2
 
 SOLVING FOR HEAD 
                                                   Max.-Head-Change                         Max.-Flux-Residual
  Residual-Control   Outer-Iter.   Inner-Iter.     Column Row Layer    Maximum-Head-Change  Column Row Layer    Maximum-Flux-Residual          L2-NORM 
          0                 1           2             4    7     1       0.4997159911E-01       4    7    1         0.2632476652E+01      0.5361110138E+01
          0                 2           2             4    7     1      -0.4860925623E-02       4    7    1        -0.2632511743E+00      0.5361126731E+00
          0                 3           2             4    7     1       0.3310105092E-03       4    7    1         0.1842755697E-01      0.3752784727E-01
          0                 4           1             4    7     1      -0.1317122044E-04       4    7    1        -0.7536882961E-03      0.1534883675E-02

    ------------------------------------------------
       NWT REQUIRED            4 OUTER ITERATIONS 
       AND A TOTAL OF          7 INNER ITERATIONS.
    ------------------------------------------------

 NO OUTPUT CONTROL FOR STRESS PERIOD   36   TIME STEP    3
 
 SOLVING FOR HEAD 
                                                   Max.-Head-Change                         Max.-Flux-Residual
  Residual-Control   Outer-Iter.   Inner-Iter.     Column Row Layer    Maximum-Head-Change  Column Row Layer    Maximum-Flux-Residual          L2-NORM 
          0                 1           2             4    7     1       0.4928744424E-01       4    7    1         0.2596405739E+01      0.5291777302E+01
          0                 2           2             4    7     1      -0.4794374830E-02       4    7    1        -0.2596440026E+00      0.5291793499E+00
          0                 3           2             4    7     1       0.3264786584E-03       4    7    1         0.1817505560E-01      0.3704251553E-01
          0                 4           1             4    7     1      -0.1299089354E-04       4    7    1        -0.7433609608E-03      0.1515034587E-02

    ------------------------------------------------
       NWT REQUIRED            4 OUTER ITERATIONS 
       AND A TOTAL OF          7 INNER ITERATIONS.
    ------------------------------------------------

 NO OUTPUT CONTROL FOR STRESS PERIOD   36   TIME STEP    4
 
 SOLVING FOR HEAD 
                                                   Max.-Head-Change                         Max.-Flux-Residual
  Residual-Control   Outer-Iter.   Inner-Iter.     Column Row Layer    Maximum-Head-Change  Column Row Layer    Maximum-Flux-Residual          L2-NORM 
          0                 1           2             4    7     1       0.4861328396E-01       4    7    1         0.2560853455E+01      0.5223964244E+01
          0                 2           2             4    7     1      -0.4728796251E-02       4    7    1        -0.2560886947E+00      0.5223979878E+00
          0                 3           2             4    7     1       0.3220130113E-03       4    7    1         0.1792618467E-01      0.3656781722E-01
          0                 4           1             4    7     1      -0.1281320146E-04       4    7    1        -0.7331821246E-03      0.1495623571E-02

    ------------------------------------------------
       NWT REQUIRED            4 OUTER ITERATIONS 
       AND A TOTAL OF          7 INNER ITERATIONS.
    ------------------------------------------------

 NO OUTPUT CONTROL FOR STRESS PERIOD   36   TIME STEP    5
 
 SOLVING FOR HEAD 
                                                   Max.-Head-Change                         Max.-Flux-Residual
  Residual-Control   Outer-Iter.   Inner-Iter.     Column Row Layer    Maximum-Head-Change  Column Row Layer    Maximum-Flux-Residual          L2-NORM 
          0                 1           2             4    7     1       0.4794922839E-01       4    7    1         0.2525826629E+01      0.5157634195E+01
          0                 2           2             4    7     1      -0.4664200600E-02       4    7    1        -0.2525859337E+00      0.5157649365E+00
          0                 3           2             4    7     1       0.3176142985E-03       4    7    1         0.1768099206E-01      0.3610351249E-01
          0                 4           1             4    7     1      -0.1263817239E-04       4    7    1        -0.7231537243E-03      0.1476636577E-02

    ------------------------------------------------
       NWT REQUIRED            4 OUTER ITERATIONS 
       AND A TOTAL OF          7 INNER ITERATIONS.
    ------------------------------------------------

 NO OUTPUT CONTROL FOR STRESS PERIOD   36   TIME STEP    6
 
 SOLVING FOR HEAD 
                                                   Max.-Head-Change                         Max.-Flux-Residual
  Residual-Control   Outer-Iter.   Inner-Iter.     Column Row Layer    Maximum-Head-Change  Column Row Layer    Maximum-Flux-Residual          L2-NORM 
          0                 1           2             4    7     1       0.4729523458E-01       4    7    1         0.2491323701E+01      0.5092727696E+01
          0                 2           2             4    7     1      -0.4600583700E-02       4    7    1        -0.2491355636E+00      0.5092742319E+00
          0                 3           2             4    7     1       0.3132822343E-03       4    7    1         0.1743946676E-01      0.3564915463E-01
          0                 4           1             4    7     1      -0.1246579552E-04       4    7    1        -0.7132753208E-03      0.1458050092E-02

    ------------------------------------------------
       NWT REQUIRED            4 OUTER ITERATIONS 
       AND A TOTAL OF          7 INNER ITERATIONS.
    ------------------------------------------------

 NO OUTPUT CONTROL FOR STRESS PERIOD   36   TIME STEP    7
 
 SOLVING FOR HEAD 
                                                   Max.-Head-Change                         Max.-Flux-Residual
  Residual-Control   Outer-Iter.   Inner-Iter.     Column Row Layer    Maximum-Head-Change  Column Row Layer    Maximum-Flux-Residual          L2-NORM 
          0                 1           2             4    7     1       0.4665138374E-01       4    7    1         0.2457349718E+01      0.5029216271E+01
          0                 2           2             4    7     1      -0.4537953453E-02       4    7    1        -0.2457380892E+00      0.5029230437E+00
          0                 3           2             4    7     1       0.3090173579E-03       4    7    1         0.1720164420E-01      0.3520457397E-01
          0                 4           1             4    7     1      -0.1229609203E-04       4    7    1        -0.7035483609E-03      0.1439866105E-02

    ------------------------------------------------
       NWT REQUIRED            4 OUTER ITERATIONS 
       AND A TOTAL OF          7 INNER ITERATIONS.
    ------------------------------------------------

 NO OUTPUT CONTROL FOR STRESS PERIOD   36   TIME STEP    8
 
 SOLVING FOR HEAD 
                                                   Max.-Head-Change                         Max.-Flux-Residual
  Residual-Control   Outer-Iter.   Inner-Iter.     Column Row Layer    Maximum-Head-Change  Column Row Layer    Maximum-Flux-Residual          L2-NORM 
          0                 1           2             4    7     1       0.4601733785E-01       4    7    1         0.2423887073E+01      0.4967040261E+01
          0                 2           2             4    7     1      -0.4476276977E-02       4    7    1        -0.2423917497E+00      0.4967053875E+00
          0                 3           2             4    7     1       0.3048174291E-03       4    7    1         0.1696740102E-01      0.3476933092E-01
          0                 4           1             4    7     1      -0.1212897292E-04       4    7    1        -0.6939678015E-03      0.1422068172E-02

    ------------------------------------------------
       NWT REQUIRED            4 OUTER ITERATIONS 
       AND A TOTAL OF          7 INNER ITERATIONS.
    ------------------------------------------------

 NO OUTPUT CONTROL FOR STRESS PERIOD   36   TIME STEP    9
 
 SOLVING FOR HEAD 
                                                   Max.-Head-Change                         Max.-Flux-Residual
  Residual-Control   Outer-Iter.   Inner-Iter.     Column Row Layer    Maximum-Head-Change  Column Row Layer    Maximum-Flux-Residual          L2-NORM 
          0                 1           2             4    7     1       0.4539342947E-01       4    7    1         0.2390954606E+01      0.4906171788E+01
          0                 2           2             4    7     1      -0.4415586624E-02       4    7    1        -0.2390984295E+00      0.4906184851E+00
          0                 3           2             4    7     1       0.3006846517E-03       4    7    1         0.1673686920E-01      0.3434325162E-01
          0                 4           1             4    7     1      -0.1196452592E-04       4    7    1        -0.6845390417E-03      0.1404639229E-02

    ------------------------------------------------
       NWT REQUIRED            4 OUTER ITERATIONS 
       AND A TOTAL OF          7 INNER ITERATIONS.
    ------------------------------------------------

 NO OUTPUT CONTROL FOR STRESS PERIOD   36   TIME STEP   10
 
 SOLVING FOR HEAD 
                                                   Max.-Head-Change                         Max.-Flux-Residual
  Residual-Control   Outer-Iter.   Inner-Iter.     Column Row Layer    Maximum-Head-Change  Column Row Layer    Maximum-Flux-Residual          L2-NORM 
          0                 1           2             4    7     1       0.4477929819E-01       4    7    1         0.2358533192E+01      0.4846563787E+01
          0                 2           2             4    7     1      -0.4355847336E-02       4    7    1        -0.2358562159E+00      0.4846576461E+00
          0                 3           2             4    7     1       0.2966166379E-03       4    7    1         0.1650991484E-01      0.3392599148E-01
          0                 4           1             4    7     1      -0.1180265548E-04       4    7    1        -0.6752565744E-03      0.1387574030E-02

    ------------------------------------------------
       NWT REQUIRED            4 OUTER ITERATIONS 
       AND A TOTAL OF          7 INNER ITERATIONS.
    ------------------------------------------------

 NO OUTPUT CONTROL FOR STRESS PERIOD   36   TIME STEP   11
 
 SOLVING FOR HEAD 
                                                   Max.-Head-Change                         Max.-Flux-Residual
  Residual-Control   Outer-Iter.   Inner-Iter.     Column Row Layer    Maximum-Head-Change  Column Row Layer    Maximum-Flux-Residual          L2-NORM 
          0                 1           2             4    7     1       0.4417498866E-01       4    7    1         0.2326625968E+01      0.4788179475E+01
          0                 2           2             4    7     1      -0.4297063455E-02       4    7    1        -0.2326654226E+00      0.4788191596E+00
          0                 3           2             4    7     1       0.2926136836E-03       4    7    1         0.1628655987E-01      0.3351729473E-01
          0                 4           1             4    7     1      -0.1164337414E-04       4    7    1        -0.6661213558E-03      0.1370853518E-02

    ------------------------------------------------
       NWT REQUIRED            4 OUTER ITERATIONS 
       AND A TOTAL OF          7 INNER ITERATIONS.
    ------------------------------------------------

 NO OUTPUT CONTROL FOR STRESS PERIOD   36   TIME STEP   12
 
 SOLVING FOR HEAD 
                                                   Max.-Head-Change                         Max.-Flux-Residual
  Residual-Control   Outer-Iter.   Inner-Iter.     Column Row Layer    Maximum-Head-Change  Column Row Layer    Maximum-Flux-Residual          L2-NORM 
          0                 1           2             4    7     1       0.4358039821E-01       4    7    1         0.2295227975E+01      0.4730985129E+01
          0                 2           2             4    7     1      -0.4239224997E-02       4    7    1        -0.2295255538E+00      0.4730997014E+00
          0                 3           2             4    7     1       0.2886751091E-03       4    7    1         0.1606676962E-01      0.3311693402E-01
          0                 4           1             4    7     1      -0.1148665462E-04       4    7    1        -0.6571319147E-03      0.1354480015E-02

    ------------------------------------------------
       NWT REQUIRED            4 OUTER ITERATIONS 
       AND A TOTAL OF          7 INNER ITERATIONS.
    ------------------------------------------------

 NO OUTPUT CONTROL FOR STRESS PERIOD   36   TIME STEP   13
 
 SOLVING FOR HEAD 
                                                   Max.-Head-Change                         Max.-Flux-Residual
  Residual-Control   Outer-Iter.   Inner-Iter.     Column Row Layer    Maximum-Head-Change  Column Row Layer    Maximum-Flux-Residual          L2-NORM 
          0                 1           2             4    7     1       0.4299542078E-01       4    7    1         0.2264333889E+01      0.4674948400E+01
          0                 2           2             4    7     1      -0.4182321646E-02       4    7    1        -0.2264360771E+00      0.4674959112E+00
          0                 3           2             4    7     1       0.2848002119E-03       4    7    1         0.1585050681E-01      0.3272466937E-01
          0                 4           1             4    7     1      -0.1133246895E-04       4    7    1        -0.6482867550E-03      0.1338435463E-02

    ------------------------------------------------
       NWT REQUIRED            4 OUTER ITERATIONS 
       AND A TOTAL OF          7 INNER ITERATIONS.
    ------------------------------------------------

 NO OUTPUT CONTROL FOR STRESS PERIOD   36   TIME STEP   14
 
 SOLVING FOR HEAD 
                                                   Max.-Head-Change                         Max.-Flux-Residual
  Residual-Control   Outer-Iter.   Inner-Iter.     Column Row Layer    Maximum-Head-Change  Column Row Layer    Maximum-Flux-Residual          L2-NORM 
          0                 1           2             4    7     1       0.4241994129E-01       4    7    1         0.2233938213E+01      0.4620030222E+01
          0                 2           2             4    7     1      -0.4126342203E-02       4    7    1        -0.2233964428E+00      0.4620040956E+00
          0                 3           2             4    7     1       0.2809882288E-03       4    7    1         0.1563773296E-01      0.3234024330E-01
          0                 4           1             4    7     1      -0.1118078638E-04       4    7    1        -0.6395842749E-03      0.1322719953E-02

    ------------------------------------------------
       NWT REQUIRED            4 OUTER ITERATIONS 
       AND A TOTAL OF          7 INNER ITERATIONS.
    ------------------------------------------------

 NO OUTPUT CONTROL FOR STRESS PERIOD   36   TIME STEP   15
 
 SOLVING FOR HEAD 
                                                   Max.-Head-Change                         Max.-Flux-Residual
  Residual-Control   Outer-Iter.   Inner-Iter.     Column Row Layer    Maximum-Head-Change  Column Row Layer    Maximum-Flux-Residual          L2-NORM 
          0                 1           2             4    7     1       0.4185397816E-01       4    7    1         0.2204042257E+01      0.4566203653E+01
          0                 2           2             4    7     1      -0.4071288465E-02       4    7    1        -0.2204067820E+00      0.4566213833E+00
          0                 3           2             4    7     1       0.2772392829E-03       4    7    1         0.1542845723E-01      0.3196344660E-01
          0                 4           1             4    7     1      -0.1103161221E-04       4    7    1        -0.6310248887E-03      0.1307308686E-02

    ------------------------------------------------
       NWT REQUIRED            4 OUTER ITERATIONS 
       AND A TOTAL OF          7 INNER ITERATIONS.
    ------------------------------------------------

 NO OUTPUT CONTROL FOR STRESS PERIOD   36   TIME STEP   16
 
 SOLVING FOR HEAD 
                                                   Max.-Head-Change                         Max.-Flux-Residual
  Residual-Control   Outer-Iter.   Inner-Iter.     Column Row Layer    Maximum-Head-Change  Column Row Layer    Maximum-Flux-Residual          L2-NORM 
          0                 1           2             4    7     1       0.4129740398E-01       4    7    1         0.2174639701E+01      0.4513439575E+01
          0                 2           2             4    7     1      -0.4017148037E-02       4    7    1        -0.2174664626E+00      0.4513449257E+00
          0                 3           2             4    7     1       0.2735525295E-03       4    7    1         0.1522263538E-01      0.3159409748E-01
          0                 4           1             4    7     1      -0.1088491316E-04       4    7    1        -0.6226067642E-03      0.1292200386E-02

    ------------------------------------------------
       NWT REQUIRED            4 OUTER ITERATIONS 
       AND A TOTAL OF          7 INNER ITERATIONS.
    ------------------------------------------------

 NO OUTPUT CONTROL FOR STRESS PERIOD   36   TIME STEP   17
 
 SOLVING FOR HEAD 
                                                   Max.-Head-Change                         Max.-Flux-Residual
  Residual-Control   Outer-Iter.   Inner-Iter.     Column Row Layer    Maximum-Head-Change  Column Row Layer    Maximum-Flux-Residual          L2-NORM 
          0                 1           2             4    7     1       0.4074995308E-01       4    7    1         0.2145716658E+01      0.4461703124E+01
          0                 2           2             4    7     1      -0.3963895077E-02       4    7    1        -0.2145740959E+00      0.4461706376E+00
          0                 3           2             4    7     1       0.2699262097E-03       4    7    1         0.1502017023E-01      0.3123190002E-01
          0                 4           1             4    7     1      -0.1074061845E-04       4    7    1        -0.6143259393E-03      0.1277386489E-02

    ------------------------------------------------
       NWT REQUIRED            4 OUTER ITERATIONS 
       AND A TOTAL OF          7 INNER ITERATIONS.
    ------------------------------------------------

 NO OUTPUT CONTROL FOR STRESS PERIOD   36   TIME STEP   18
 
 SOLVING FOR HEAD 
                                                   Max.-Head-Change                         Max.-Flux-Residual
  Residual-Control   Outer-Iter.   Inner-Iter.     Column Row Layer    Maximum-Head-Change  Column Row Layer    Maximum-Flux-Residual          L2-NORM 
          0                 1           2             4    7     1       0.4021163190E-01       4    7    1         0.2117273913E+01      0.4410964989E+01
          0                 2           2             4    7     1      -0.3911530208E-02       4    7    1        -0.2117297605E+00      0.4410973831E+00
          0                 3           2             4    7     1       0.2663603645E-03       4    7    1         0.1482106723E-01      0.3087676664E-01
          0                 4           1             4    7     1      -0.1059872955E-04       4    7    1        -0.6061825886E-03      0.1262860589E-02

    ------------------------------------------------
       NWT REQUIRED            4 OUTER ITERATIONS 
       AND A TOTAL OF          7 INNER ITERATIONS.
    ------------------------------------------------

 NO OUTPUT CONTROL FOR STRESS PERIOD   36   TIME STEP   19
 
 SOLVING FOR HEAD 
                                                   Max.-Head-Change                         Max.-Flux-Residual
  Residual-Control   Outer-Iter.   Inner-Iter.     Column Row Layer    Maximum-Head-Change  Column Row Layer    Maximum-Flux-Residual          L2-NORM 
          0                 1           2             4    7     1       0.3968231010E-01       4    7    1         0.2089304521E+01      0.4361213112E+01
          0                 2           2             4    7     1      -0.3860040755E-02       4    7    1        -0.2089327617E+00      0.4361221507E+00
          0                 3           2             4    7     1       0.2628541320E-03       4    7    1         0.1462527777E-01      0.3052849254E-01
          0                 4           1             4    7     1      -0.1045921332E-04       4    7    1        -0.5981747877E-03      0.1248613278E-02

    ------------------------------------------------
       NWT REQUIRED            4 OUTER ITERATIONS 
       AND A TOTAL OF          7 INNER ITERATIONS.
    ------------------------------------------------

 NO OUTPUT CONTROL FOR STRESS PERIOD   36   TIME STEP   20
 
 SOLVING FOR HEAD 
                                                   Max.-Head-Change                         Max.-Flux-Residual
  Residual-Control   Outer-Iter.   Inner-Iter.     Column Row Layer    Maximum-Head-Change  Column Row Layer    Maximum-Flux-Residual          L2-NORM 
          0                 1           2             4    7     1       0.3916184508E-01       4    7    1         0.2061801725E+01      0.4312397123E+01
          0                 2           2             4    7     1      -0.3809412847E-02       4    7    1        -0.2061824239E+00      0.4312405083E+00
          0                 3           2             4    7     1       0.2594065680E-03       4    7    1         0.1443275461E-01      0.3018678314E-01
          0                 4           1             4    7     1      -0.1032203199E-04       4    7    1        -0.5903005911E-03      0.1234638121E-02

    ------------------------------------------------
       NWT REQUIRED            4 OUTER ITERATIONS 
       AND A TOTAL OF          7 INNER ITERATIONS.
    ------------------------------------------------

 NO OUTPUT CONTROL FOR STRESS PERIOD   36   TIME STEP   21
 
 SOLVING FOR HEAD 
                                                   Max.-Head-Change                         Max.-Flux-Residual
  Residual-Control   Outer-Iter.   Inner-Iter.     Column Row Layer    Maximum-Head-Change  Column Row Layer    Maximum-Flux-Residual          L2-NORM 
          0                 1           2             4    7     1       0.3865010289E-01       4    7    1         0.2034758130E+01      0.4264511998E+01
          0                 2           2             4    7     1      -0.3759633451E-02       4    7    1        -0.2034780077E+00      0.4264519031E+00
          0                 3           2             4    7     1       0.2560167834E-03       4    7    1         0.1424344591E-01      0.2985158695E-01
          0                 4           1             4    7     1      -0.1018714896E-04       4    7    1        -0.5825578417E-03      0.1220930086E-02

    ------------------------------------------------
       NWT REQUIRED            4 OUTER ITERATIONS 
       AND A TOTAL OF          7 INNER ITERATIONS.
    ------------------------------------------------

 NO OUTPUT CONTROL FOR STRESS PERIOD   36   TIME STEP   22
 
 SOLVING FOR HEAD 
                                                   Max.-Head-Change                         Max.-Flux-Residual
  Residual-Control   Outer-Iter.   Inner-Iter.     Column Row Layer    Maximum-Head-Change  Column Row Layer    Maximum-Flux-Residual          L2-NORM 
          0                 1           2             4    7     1       0.3814707320E-01       4    7    1         0.2008174076E+01      0.4217525451E+01
          0                 2           2             4    7     1      -0.3710701566E-02       4    7    1        -0.2008195469E+00      0.4217532594E+00
          0                 3           2             4    7     1       0.2526847118E-03       4    7    1         0.1405735412E-01      0.2952267818E-01
          0                 4           1             4    7     1      -0.1005456260E-04       4    7    1        -0.5749466775E-03      0.1207484407E-02

    ------------------------------------------------
       NWT REQUIRED            4 OUTER ITERATIONS 
       AND A TOTAL OF          7 INNER ITERATIONS.
    ------------------------------------------------

 NO OUTPUT CONTROL FOR STRESS PERIOD   36   TIME STEP   23
 
 SOLVING FOR HEAD 
                                                   Max.-Head-Change                         Max.-Flux-Residual
  Residual-Control   Outer-Iter.   Inner-Iter.     Column Row Layer    Maximum-Head-Change  Column Row Layer    Maximum-Flux-Residual          L2-NORM 
          0                 1           2             4    7     1       0.3765247998E-01       4    7    1         0.1982034460E+01      0.4171414795E+01
          0                 2           2             4    7     1      -0.3662590300E-02       4    7    1        -0.1982055313E+00      0.4171179828E+00
          0                 3           2             4    7     1       0.2494085205E-03       4    7    1         0.1387437345E-01      0.2919820207E-01
          0                 4           1             4    7     1      -0.9924200164E-05       4    7    1        -0.5674627650E-03      0.1194204330E-02

    ------------------------------------------------
       NWT REQUIRED            4 OUTER ITERATIONS 
       AND A TOTAL OF          7 INNER ITERATIONS.
    ------------------------------------------------

 NO OUTPUT CONTROL FOR STRESS PERIOD   36   TIME STEP   24
 
 SOLVING FOR HEAD 
                                                   Max.-Head-Change                         Max.-Flux-Residual
  Residual-Control   Outer-Iter.   Inner-Iter.     Column Row Layer    Maximum-Head-Change  Column Row Layer    Maximum-Flux-Residual          L2-NORM 
          0                 1           2             4    7     1       0.3716631479E-01       4    7    1         0.1956339541E+01      0.4126176877E+01
          0                 2           2             4    7     1      -0.3615298270E-02       4    7    1        -0.1956359867E+00      0.4125814268E+00
          0                 3           2             4    7     1       0.2461881160E-03       4    7    1         0.1369450576E-01      0.2888064175E-01
          0                 4           1             4    7     1      -0.9796057043E-05       4    7    1        -0.5601061473E-03      0.1181216427E-02

    ------------------------------------------------
       NWT REQUIRED            4 OUTER ITERATIONS 
       AND A TOTAL OF          7 INNER ITERATIONS.
    ------------------------------------------------

 NO OUTPUT CONTROL FOR STRESS PERIOD   36   TIME STEP   25
 
 SOLVING FOR HEAD 
                                                   Max.-Head-Change                         Max.-Flux-Residual
  Residual-Control   Outer-Iter.   Inner-Iter.     Column Row Layer    Maximum-Head-Change  Column Row Layer    Maximum-Flux-Residual          L2-NORM 
          0                 1           2             4    7     1       0.3668830136E-01       4    7    1         0.1931074343E+01      0.4081803051E+01
          0                 2           2             4    7     1      -0.3568800520E-02       4    7    1        -0.1931094155E+00      0.4081809499E+00
          0                 3           2             4    7     1       0.2430217990E-03       4    7    1         0.1351764617E-01      0.2857261352E-01
          0                 4           1             4    7     1      -0.9670066003E-05       4    7    1        -0.5528725808E-03      0.1168620263E-02

    ------------------------------------------------
       NWT REQUIRED            4 OUTER ITERATIONS 
       AND A TOTAL OF          7 INNER ITERATIONS.
    ------------------------------------------------

 NO OUTPUT CONTROL FOR STRESS PERIOD   36   TIME STEP   26
 
 SOLVING FOR HEAD 
                                                   Max.-Head-Change                         Max.-Flux-Residual
  Residual-Control   Outer-Iter.   Inner-Iter.     Column Row Layer    Maximum-Head-Change  Column Row Layer    Maximum-Flux-Residual          L2-NORM 
          0                 1           2             4    7     1       0.3621856791E-01       4    7    1         0.1906246294E+01      0.4038270007E+01
          0                 2           2             4    7     1      -0.3523107528E-02       4    7    1        -0.1906265605E+00      0.4038275989E+00
          0                 3           2             4    7     1       0.2399102831E-03       4    7    1         0.1334384672E-01      0.2826787710E-01
          0                 4           1             4    7     1      -0.9546256169E-05       4    7    1        -0.5457641892E-03      0.1156149730E-02

    ------------------------------------------------
       NWT REQUIRED            4 OUTER ITERATIONS 
       AND A TOTAL OF          7 INNER ITERATIONS.
    ------------------------------------------------

 NO OUTPUT CONTROL FOR STRESS PERIOD   36   TIME STEP   27
 
 SOLVING FOR HEAD 
                                                   Max.-Head-Change                         Max.-Flux-Residual
  Residual-Control   Outer-Iter.   Inner-Iter.     Column Row Layer    Maximum-Head-Change  Column Row Layer    Maximum-Flux-Residual          L2-NORM 
          0                 1           2             4    7     1       0.3575669744E-01       4    7    1         0.1881833008E+01      0.3995522325E+01
          0                 2           2             4    7     1      -0.3478179408E-02       4    7    1        -0.1881851831E+00      0.3995527894E+00
          0                 3           2             4    7     1       0.2368508515E-03       4    7    1         0.1317295069E-01      0.2796862226E-01
          0                 4           1             4    7     1      -0.9424518403E-05       4    7    1        -0.5387745157E-03      0.1143909018E-02

    ------------------------------------------------
       NWT REQUIRED            4 OUTER ITERATIONS 
       AND A TOTAL OF          7 INNER ITERATIONS.
    ------------------------------------------------

 NO OUTPUT CONTROL FOR STRESS PERIOD   36   TIME STEP   28
 
 SOLVING FOR HEAD 
                                                   Max.-Head-Change                         Max.-Flux-Residual
  Residual-Control   Outer-Iter.   Inner-Iter.     Column Row Layer    Maximum-Head-Change  Column Row Layer    Maximum-Flux-Residual          L2-NORM 
          0                 1           2             4    7     1       0.3530281725E-01       4    7    1         0.1857841971E+01      0.3953547430E+01
          0                 2           2             4    7     1      -0.3434028543E-02       4    7    1        -0.1857860319E+00      0.3953552627E+00
          0                 3           2             4    7     1       0.2338443478E-03       4    7    1         0.1300501047E-01      0.2767480688E-01
          0                 4           1             4    7     1      -0.9304886665E-05       4    7    1        -0.5319057439E-03      0.1131898923E-02

    ------------------------------------------------
       NWT REQUIRED            4 OUTER ITERATIONS 
       AND A TOTAL OF          7 INNER ITERATIONS.
    ------------------------------------------------

 NO OUTPUT CONTROL FOR STRESS PERIOD   36   TIME STEP   29
 
 SOLVING FOR HEAD 
                                                   Max.-Head-Change                         Max.-Flux-Residual
  Residual-Control   Outer-Iter.   Inner-Iter.     Column Row Layer    Maximum-Head-Change  Column Row Layer    Maximum-Flux-Residual          L2-NORM 
          0                 1           2             4    7     1       0.3485651040E-01       4    7    1         0.1834250639E+01      0.3912312417E+01
          0                 2           2             4    7     1      -0.3390614375E-02       4    7    1        -0.1834268524E+00      0.3912317339E+00
          0                 3           2             4    7     1       0.2308880110E-03       4    7    1         0.1283986830E-01      0.2738616226E-01
          0                 4           1             4    7     1      -0.9187251356E-05       4    7    1        -0.5251514178E-03      0.1120104092E-02

    ------------------------------------------------
       NWT REQUIRED            4 OUTER ITERATIONS 
       AND A TOTAL OF          7 INNER ITERATIONS.
    ------------------------------------------------

 NO OUTPUT CONTROL FOR STRESS PERIOD   36   TIME STEP   30



 STREAM LISTING     PERIOD     36   STEP       30

 LAYER ROW COL. STREAM  RCH.  FLOW INTO     FLOW TO   FLOW OUT OF   OVRLND.     DIRECT     STREAM       STREAM     STREAM     STREAM   STREAMBED  STREAMBED
                SEG.NO.  NO.  STRM. RCH.    AQUIFER    STRM. RCH.    RUNOFF     PRECIP       ET          HEAD       DEPTH      WIDTH   CONDCTNC.   GRADIENT

   1    1    1     1     1    1.9000E+01  2.1427E-01   1.8786E+01  0.000E+00  0.000E+00  0.000E+00  1.09413E+03  1.082E+00  1.166E+01  5.249E-02  1.361E+00
   1    2    2     1     2    1.8786E+01  3.3054E-01   1.8455E+01  0.000E+00  0.000E+00  0.000E+00  1.08914E+03  1.077E+00  1.158E+01  8.107E-02  1.359E+00
   1    3    3     1     3    1.8455E+01  2.8064E-01   1.8175E+01  0.000E+00  0.000E+00  0.000E+00  1.08349E+03  1.072E+00  1.149E+01  6.892E-02  1.357E+00
   1    3    4     1     4    1.8175E+01  2.5740E-01   1.7917E+01  0.000E+00  0.000E+00  0.000E+00  1.07848E+03  1.068E+00  1.140E+01  6.328E-02  1.356E+00
   1    4    5     2     1    1.5917E+01  3.0542E-01   1.5612E+01  0.000E+00  0.000E+00  0.000E+00  1.07285E+03  9.157E-01  1.200E+01  7.800E-02  1.305E+00
   1    5    6     2     2    1.5612E+01  2.3438E-01   1.5377E+01  0.000E+00  0.000E+00  0.000E+00  1.06742E+03  9.063E-01  1.200E+01  6.000E-02  1.302E+00
   1    6    6     2     3    1.5377E+01  2.3388E-01   1.5143E+01  0.000E+00  0.000E+00  0.000E+00  1.06269E+03  8.980E-01  1.200E+01  6.000E-02  1.299E+00
   1    7    6     2     4    1.5143E+01  2.3338E-01   1.4910E+01  0.000E+00  0.000E+00  0.000E+00  1.05797E+03  8.897E-01  1.200E+01  6.000E-02  1.297E+00
   1    8    6     2     5    1.4910E+01  2.3289E-01   1.4677E+01  0.000E+00  0.000E+00  0.000E+00  1.05324E+03  8.814E-01  1.200E+01  6.000E-02  1.294E+00
   1    3    5     3     1    2.0000E+00  2.8252E-01   1.7175E+00  0.000E+00  0.000E+00  0.000E+00  1.07555E+03  1.909E+00  9.636E+00  7.227E-02  1.955E+00
   1    3    6     3     2    1.7175E+00  2.4905E-01   1.4684E+00  0.000E+00  0.000E+00  0.000E+00  1.07264E+03  1.727E+00  8.909E+00  6.682E-02  1.864E+00
   1    3    7     3     3    1.4684E+00  1.9718E-01   1.2712E+00  0.000E+00  0.000E+00  0.000E+00  1.06987E+03  1.555E+00  8.218E+00  5.547E-02  1.777E+00
   1    4    8     3     4    1.2712E+00  2.2567E-01   1.0456E+00  0.000E+00  0.000E+00  0.000E+00  1.06682E+03  1.364E+00  7.455E+00  6.709E-02  1.682E+00
   1    5    8     3     5    1.0456E+00  1.5790E-01   8.8768E-01  0.000E+00  0.000E+00  0.000E+00  1.06362E+03  1.164E+00  6.655E+00  4.991E-02  1.582E+00
   1    6    8     3     6    8.8768E-01  5.5980E-02   8.3170E-01  0.000E+00  0.000E+00  0.000E+00  1.06158E+03  1.036E+00  6.145E+00  1.844E-02  1.518E+00
   1    5   10     4     1    1.0000E+01  9.0919E-02   9.9091E+00  0.000E+00  0.000E+00  0.000E+00  1.07836E+03  6.368E-01  1.000E+01  2.500E-02  1.212E+00
   1    5    9     4     2    9.9091E+00  1.8158E-01   9.7275E+00  0.000E+00  0.000E+00  0.000E+00  1.07154E+03  6.315E-01  1.000E+01  5.000E-02  1.211E+00
   1    6    8     4     3    9.7275E+00  1.2689E-01   9.6006E+00  0.000E+00  0.000E+00  0.000E+00  1.06381E+03  6.256E-01  1.000E+01  3.500E-02  1.209E+00
   1    6    8     5     1    1.0432E+01  2.2686E-01   1.0205E+01  0.000E+00  0.000E+00  0.000E+00  1.05868E+03  6.790E-01  1.542E+01  6.166E-02  1.226E+00
   1    7    7     5     2    1.0205E+01  2.7894E-01   9.9265E+00  0.000E+00  0.000E+00  0.000E+00  1.05417E+03  6.732E-01  1.519E+01  7.594E-02  1.224E+00
   1    8    7     5     3    9.9265E+00  1.9221E-01   9.7343E+00  0.000E+00  0.000E+00  0.000E+00  1.04992E+03  6.676E-01  1.497E+01  5.241E-02  1.223E+00
   1    8    6     5     4    9.7343E+00  1.3577E-01   9.5985E+00  0.000E+00  0.000E+00  0.000E+00  1.04691E+03  6.637E-01  1.482E+01  3.706E-02  1.221E+00
   1    9    6     6     1    2.4276E+01  2.5176E-01   2.4024E+01  0.000E+00  0.000E+00  0.000E+00  1.04392E+03  1.196E+00  1.200E+01  6.000E-02  1.399E+00
   1   10    7     6     2    2.4024E+01  2.5131E-01   2.3773E+01  0.000E+00  0.000E+00  0.000E+00  1.03937E+03  1.188E+00  1.200E+01  6.000E-02  1.396E+00
   1   11    7     6     3    2.3773E+01  2.5086E-01   2.3522E+01  0.000E+00  0.000E+00  0.000E+00  1.03482E+03  1.181E+00  1.200E+01  6.000E-02  1.394E+00
   1   12    7     6     4    2.3522E+01  2.5041E-01   2.3271E+01  0.000E+00  0.000E+00  0.000E+00  1.03026E+03  1.173E+00  1.200E+01  6.000E-02  1.391E+00
   1   13    7     6     5    2.3271E+01  7.8075E-03   2.3264E+01  0.000E+00  0.000E+00  0.000E+00  1.02708E+03  1.170E+00  1.200E+01  2.400E-02  1.084E-01
   1   14    9     7     1    1.5000E+02  1.3571E+00   1.4864E+02  0.000E+00  0.000E+00  0.000E+00  1.03987E+03  2.288E+00  5.529E+01  5.593E-01  8.088E-01
   1   13    8     7     2    1.4864E+02  1.9272E+00   1.4672E+02  0.000E+00  0.000E+00  0.000E+00  1.03478E+03  2.279E+00  5.526E+01  6.148E-01  1.045E+00
   1   13    7     7     3    1.4672E+02  1.6391E+00   1.4508E+02  0.000E+00  0.000E+00  0.000E+00  1.02969E+03  2.269E+00  5.521E+01  5.584E-01  9.785E-01
   1   13    6     8     1    1.6834E+02  1.0805E+00   1.6726E+02  0.000E+00  0.000E+00  0.000E+00  1.02481E+03  2.938E+00  4.260E+01  4.341E-01  8.297E-01
   1   13    5     8     2    1.6726E+02  3.2743E-01   1.6693E+02  0.000E+00  0.000E+00  0.000E+00  1.01856E+03  2.933E+00  4.253E+01  4.334E-01  2.518E-01
   1   13    4     8     3    1.6693E+02 -1.9162E+00   1.6885E+02  0.000E+00  0.000E+00  0.000E+00  1.01231E+03  2.938E+00  4.261E+01  4.342E+00 -1.471E-01
   1   13    3     8     4    1.6885E+02 -3.4037E+00   1.7225E+02  0.000E+00  0.000E+00  0.000E+00  1.00608E+03  2.956E+00  4.286E+01  4.367E+00 -2.598E-01
   1   13    2     8     5    1.7225E+02 -2.5184E+00   1.7477E+02  0.000E+00  0.000E+00  0.000E+00  9.99850E+02  2.975E+00  4.314E+01  4.396E+00 -1.910E-01
   1   13    1     8     6    1.7477E+02 -1.9675E+00   1.7674E+02  0.000E+00  0.000E+00  0.000E+00  9.94864E+02  2.989E+00  4.334E+01  2.650E+00 -2.475E-01





UNSATURATED ZONE PACKAGE VOLUMETRIC BUDGET FOR  TIME STEP    30 STRESS PERIOD   36
  ------------------------------------------------------------------------------



     CUMULATIVE VOLUMES      L**3       RATES FOR THIS TIME STEP      L**3/T
     ------------------                 ------------------------

           IN:                                      IN:
           ---                                      ---
        INFILTRATION =  1599541129.8037          INFILTRATION =           4.4075

          OUT:                                     OUT:
          ----                                     ----
              UZF ET =  1497854873.3083                UZF ET =           0.7250
        UZF RECHARGE =      884424.5976          UZF RECHARGE =       0.0000E+00

            IN - OUT =   100801831.8978              IN - OUT =           3.6825

          STORAGE:                                 STORAGE:
          --------                                 --------
      STORAGE CHANGE =   100802760.9311        STORAGE CHANGE =           3.6825

 PERCENT DISCREPANCY IS DIFFERENCE BETWEEN IN-OUT MINUS CHANGE IN STORAGE
 DIVIDED BY THE AVERAGE OF IN AND OUT TIMES 100

 PERCENT DISCREPANCY =          -0.00     PERCENT DISCREPANCY =           0.00






1
  VOLUMETRIC BUDGET FOR AGRICULTURAL FIELDS AT TIME STEP   30, STRESS PERIOD  36
  ------------------------------------------------------------------------------

     CUMULATIVE VOLUMES      L**3       RATES FOR THIS TIME STEP      L**3/T
     ------------------                 ------------------------

           IN:                                      IN:
           ---                                      ---
               AG WELLS  =  1193757312.0000                 AG WELLS  =           0.0000
      DIVERSION SEGMENTS =           0.0000        DIVERSION SEGMENTS =           0.0000
           GW IRRIGATION =           0.0000             GW IRRIGATION =           0.0000
           SW IRRIGATION =           0.0000             SW IRRIGATION =           0.0000
        SYSTEM LOSSES GW =           0.0000          SYSTEM LOSSES GW =           0.0000
        SYSTEM LOSSES SW =           0.0000          SYSTEM LOSSES SW =           0.0000

                TOTAL IN =  1193757312.0000                  TOTAL IN =           0.0000

          OUT:                                     OUT:
          ----                                     ----
               AG WELLS  =           0.0000                 AG WELLS  =           0.0000
      DIVERSION SEGMENTS =           0.0000        DIVERSION SEGMENTS =           0.0000
           GW IRRIGATION =  1193757312.0000             GW IRRIGATION =           0.0000
           SW IRRIGATION =           0.0000             SW IRRIGATION =           0.0000
        SYSTEM LOSSES GW =           0.0000          SYSTEM LOSSES GW =           0.0000
        SYSTEM LOSSES SW =           0.0000          SYSTEM LOSSES SW =           0.0000

               TOTAL OUT =  1193757312.0000                 TOTAL OUT =           0.0000

                IN - OUT =           0.0000                  IN - OUT =           0.0000

     PERCENT DISCREPANCY =           0.00         PERCENT DISCREPANCY =           0.00



1
  VOLUMETRIC BUDGET FOR ENTIRE MODEL AT END OF TIME STEP   30, STRESS PERIOD  36
  ------------------------------------------------------------------------------

     CUMULATIVE VOLUMES      L**3       RATES FOR THIS TIME STEP      L**3/T
     ------------------                 ------------------------

           IN:                                      IN:
           ---                                      ---
             STORAGE     =  1614119936.0000               STORAGE     =           9.6347
       CONSTANT HEAD     =           0.0000         CONSTANT HEAD     =           0.0000
     HEAD DEP BOUNDS     =    26331728.0000       HEAD DEP BOUNDS     =           0.2872
      STREAM LEAKAGE     =  1128384384.0000        STREAM LEAKAGE     =          12.0678
        UZF RECHARGE     =      884424.5000          UZF RECHARGE     =           0.0000
               GW ET     =           0.0000                 GW ET     =           0.0000
     SURFACE LEAKAGE     =           0.0000       SURFACE LEAKAGE     =           0.0000
           AG WELLS      =           0.0000             AG WELLS      =           0.0000

                TOTAL IN =  2769720576.0000                  TOTAL IN =          21.9897

          OUT:                                     OUT:
          ----                                     ----
             STORAGE     =   584144192.0000               STORAGE     =          11.8950
       CONSTANT HEAD     =           0.0000         CONSTANT HEAD     =           0.0000
     HEAD DEP BOUNDS     =    26953588.0000       HEAD DEP BOUNDS     =           0.2891
      STREAM LEAKAGE     =   947522560.0000        STREAM LEAKAGE     =           9.8057
        UZF RECHARGE     =           0.0000          UZF RECHARGE     =           0.0000
               GW ET     =    17343536.0000                 GW ET     =           0.0000
     SURFACE LEAKAGE     =           0.0000       SURFACE LEAKAGE     =           0.0000
           AG WELLS      =  1193757312.0000             AG WELLS      =           0.0000

               TOTAL OUT =  2769721344.0000                 TOTAL OUT =          21.9897

                IN - OUT =        -768.0000                  IN - OUT =       1.1444E-05

     PERCENT DISCREPANCY =          -0.00         PERCENT DISCREPANCY =           0.00






         TIME SUMMARY AT END OF TIME STEP   30 IN STRESS PERIOD   36
                    SECONDS     MINUTES      HOURS       DAYS        YEARS
                    -----------------------------------------------------------
   TIME STEP LENGTH  87667.      1461.1      24.352      1.0147     2.77799E-03
 STRESS PERIOD TIME 2.63000E+06  43833.      730.56      30.440     8.33397E-02
         TOTAL TIME 9.21360E+07 1.53560E+06  25593.      1066.4      2.9196    
1
1
                            STRESS PERIOD NO.   37, LENGTH =   2630000.    
                            -----------------------------------------------

                              NUMBER OF TIME STEPS =    30

                               MULTIPLIER FOR DELT =     1.000

                            INITIAL TIME STEP SIZE =   87666.66    

 REUSING NON-PARAMETER GHB CELLS FROM LAST STRESS PERIOD

      2 GHB CELLS

 REUSING STREAM SEGMENT DATA FROM LAST STRESS PERIOD



            AREAL INFILTRATION RATE
 READING ON UNIT   19 WITH FORMAT: (10F4.0)            

            1           2           3           4           5           6           7           8           9          10
 ........................................................................................................................
   1   1.2000E-09   0.000       0.000       0.000       0.000       0.000       0.000       0.000       0.000       0.000    
   2   2.1000E-09  2.0000E-09  8.0000E-10  8.5000E-09   0.000       0.000       0.000       0.000       0.000       0.000    
   3   5.0000E-10  1.1000E-09  8.8000E-09  5.5000E-09   0.000       0.000       0.000       0.000       0.000       0.000    
   4   8.5000E-09  1.1000E-09  1.1000E-09  1.1000E-09  2.0000E-09   0.000       0.000       0.000       0.000       0.000    
   5   8.5000E-09  1.1000E-09  1.1000E-09  1.1000E-09  1.1000E-09   0.000       0.000       0.000       0.000       0.000    
   6   8.5000E-09  5.2000E-09  2.1000E-09  1.1000E-09  1.5000E-09   0.000       0.000       0.000       0.000       0.000    
   7   8.5000E-09  5.2000E-09  2.1000E-09  1.2000E-09  2.0000E-09   0.000       0.000       0.000       0.000       0.000    
   8   5.0000E-10  5.2000E-09  2.1000E-09  1.2000E-09  5.0000E-09   0.000       0.000       0.000       0.000       0.000    
   9   5.0000E-10  5.2000E-09  2.1000E-09  1.2000E-09  5.0000E-09   0.000       0.000       0.000       0.000       0.000    
  10   5.0000E-10  5.2000E-09  2.1000E-09  1.2000E-09  5.8000E-09   0.000       0.000       0.000       0.000       0.000    
  11   1.0000E-10  1.1000E-09  1.1000E-09  1.2000E-09  5.0000E-09   0.000       0.000       0.000       0.000       0.000    
  12   1.1000E-09  1.1000E-09  1.1000E-09  1.1000E-09  2.0000E-09   0.000       0.000       0.000       0.000       0.000    
  13   1.1000E-09  2.2000E-09  2.2000E-09  2.1000E-09  1.0000E-09   0.000       0.000       0.000       0.000       0.000    
  14   2.0000E-10  5.5000E-09  5.5000E-09  5.2000E-09  1.0000E-09   0.000       0.000       0.000       0.000       0.000    
  15    0.000      8.8000E-09  8.8000E-09   0.000       0.000       0.000       0.000       0.000       0.000       0.000    

                  ET RATE =  5.000000E-10

 USING ET EXTINCTION DEPTH FROM PREVIOUS STRESS PERIOD. CURRENT PERIOD IS:      37

 USING EXTINCTION WATER CONTENT FROM PREVIOUS STRESS PERIOD. CURRENT PERIOD IS:      37

 USING AIR ENTRY PRESSURE FROM PREVIOUS STRESS PERIOD. CURRENT PERIOD IS:      37

 USING ROOT PRESSURE HEAD FROM PREVIOUS STRESS PERIOD. CURRENT PERIOD IS:      37

 USING ROOT ACTIVITY FROM PREVIOUS STRESS PERIOD. CURRENT PERIOD IS:      37

 PROCESSING AG STRESS PERIOD DATA

 READING AG STRESS PERIOD DATA

 READING IRRIGATION WELL

 END PROCESSING AG STRESS PERIOD DATA OPTIONS
 
 SOLVING FOR HEAD 
                                                   Max.-Head-Change                         Max.-Flux-Residual
  Residual-Control   Outer-Iter.   Inner-Iter.     Column Row Layer    Maximum-Head-Change  Column Row Layer    Maximum-Flux-Residual          L2-NORM 
          0                 1           2             4    7     1       0.3441804382E-01       4    7    1         0.1811073829E+01      0.3871820765E+01
          0                 2           2             4    7     1      -0.3347962869E-02       4    7    1        -0.1811091262E+00      0.3871825293E+00
          0                 3           2             4    7     1       0.2279836081E-03       4    7    1         0.1267762780E-01      0.2710271411E-01
          0                 4           1             4    7     1      -0.9071682816E-05       4    7    1        -0.5185157913E-03      0.1108496916E-02

    ------------------------------------------------
       NWT REQUIRED            4 OUTER ITERATIONS 
       AND A TOTAL OF          7 INNER ITERATIONS.
    ------------------------------------------------

 NO OUTPUT CONTROL FOR STRESS PERIOD   37   TIME STEP    1
 
 SOLVING FOR HEAD 
                                                   Max.-Head-Change                         Max.-Flux-Residual
  Residual-Control   Outer-Iter.   Inner-Iter.     Column Row Layer    Maximum-Head-Change  Column Row Layer    Maximum-Flux-Residual          L2-NORM 
          0                 1           2             4    7     1       0.3398686295E-01       4    7    1         0.1788281657E+01      0.3832038762E+01
          0                 2           2             4    7     1      -0.3306020082E-02       4    7    1        -0.1788298651E+00      0.3832042882E+00
          0                 3           2             4    7     1       0.2251274657E-03       4    7    1         0.1251807986E-01      0.2682422969E-01
          0                 4           1             4    7     1      -0.8958033800E-05       4    7    1        -0.5119902494E-03      0.1097096812E-02

    ------------------------------------------------
       NWT REQUIRED            4 OUTER ITERATIONS 
       AND A TOTAL OF          7 INNER ITERATIONS.
    ------------------------------------------------

 NO OUTPUT CONTROL FOR STRESS PERIOD   37   TIME STEP    2
 
 SOLVING FOR HEAD 
                                                   Max.-Head-Change                         Max.-Flux-Residual
  Residual-Control   Outer-Iter.   Inner-Iter.     Column Row Layer    Maximum-Head-Change  Column Row Layer    Maximum-Flux-Residual          L2-NORM 
          0                 1           2             4    7     1       0.3356310197E-01       4    7    1         0.1765881808E+01      0.3792952147E+01
          0                 2           2             4    7     1      -0.3264799064E-02       4    7    1        -0.1765898373E+00      0.3792955928E+00
          0                 3           2             4    7     1       0.2223204737E-03       4    7    1         0.1236127828E-01      0.2655062513E-01
          0                 4           1             4    7     1      -0.8846340801E-05       4    7    1        -0.5055770557E-03      0.1085923655E-02

    ------------------------------------------------
       NWT REQUIRED            4 OUTER ITERATIONS 
       AND A TOTAL OF          7 INNER ITERATIONS.
    ------------------------------------------------

 NO OUTPUT CONTROL FOR STRESS PERIOD   37   TIME STEP    3
 
 SOLVING FOR HEAD 
                                                   Max.-Head-Change                         Max.-Flux-Residual
  Residual-Control   Outer-Iter.   Inner-Iter.     Column Row Layer    Maximum-Head-Change  Column Row Layer    Maximum-Flux-Residual          L2-NORM 
          0                 1           2             4    7     1       0.3314661664E-01       4    7    1         0.1743866664E+01      0.3754546374E+01
          0                 2           2             4    7     1      -0.3224285786E-02       4    7    1        -0.1743882814E+00      0.3754549774E+00
          0                 3           2             4    7     1       0.2195616758E-03       4    7    1         0.1220716969E-01      0.2628179272E-01
          0                 4           1             4    7     1      -0.8736565944E-05       4    7    1        -0.4992740219E-03      0.1074926252E-02

    ------------------------------------------------
       NWT REQUIRED            4 OUTER ITERATIONS 
       AND A TOTAL OF          7 INNER ITERATIONS.
    ------------------------------------------------

 NO OUTPUT CONTROL FOR STRESS PERIOD   37   TIME STEP    4
 
 SOLVING FOR HEAD 
                                                   Max.-Head-Change                         Max.-Flux-Residual
  Residual-Control   Outer-Iter.   Inner-Iter.     Column Row Layer    Maximum-Head-Change  Column Row Layer    Maximum-Flux-Residual          L2-NORM 
          0                 1           2             4    7     1       0.3273726454E-01       4    7    1         0.1722228747E+01      0.3716803782E+01
          0                 2           2             4    7     1      -0.3184466391E-02       4    7    1        -0.1722244491E+00      0.3716806888E+00
          0                 3           2             4    7     1       0.2168501284E-03       4    7    1         0.1205570175E-01      0.2601758711E-01
          0                 4           1             4    7     1      -0.8628670774E-05       4    7    1        -0.4930789619E-03      0.1064113927E-02

    ------------------------------------------------
       NWT REQUIRED            4 OUTER ITERATIONS 
       AND A TOTAL OF          7 INNER ITERATIONS.
    ------------------------------------------------

 NO OUTPUT CONTROL FOR STRESS PERIOD   37   TIME STEP    5
 
 SOLVING FOR HEAD 
                                                   Max.-Head-Change                         Max.-Flux-Residual
  Residual-Control   Outer-Iter.   Inner-Iter.     Column Row Layer    Maximum-Head-Change  Column Row Layer    Maximum-Flux-Residual          L2-NORM 
          0                 1           2             4    7     1       0.3233490604E-01       4    7    1         0.1700960673E+01      0.3679710400E+01
          0                 2           2             4    7     1      -0.3145327301E-02       4    7    1        -0.1700976022E+00      0.3679713112E+00
          0                 3           2             4    7     1       0.2141849071E-03       4    7    1         0.1190682279E-01      0.2575791733E-01
          0                 4           1             4    7     1      -0.8522619028E-05       4    7    1        -0.4869897896E-03      0.1053500409E-02

    ------------------------------------------------
       NWT REQUIRED            4 OUTER ITERATIONS 
       AND A TOTAL OF          7 INNER ITERATIONS.
    ------------------------------------------------

 NO OUTPUT CONTROL FOR STRESS PERIOD   37   TIME STEP    6
 
 SOLVING FOR HEAD 
                                                   Max.-Head-Change                         Max.-Flux-Residual
  Residual-Control   Outer-Iter.   Inner-Iter.     Column Row Layer    Maximum-Head-Change  Column Row Layer    Maximum-Flux-Residual          L2-NORM 
          0                 1           2             4    7     1       0.3193926783E-01       4    7    1         0.1680047912E+01      0.3643249485E+01
          0                 2           2             4    7     1      -0.3106841925E-02       4    7    1        -0.1680062876E+00      0.3643252196E+00
          0                 3           2             4    7     1       0.2115642010E-03       4    7    1         0.1176043105E-01      0.2550269959E-01
          0                 4           1             4    7     1      -0.8418338405E-05       4    7    1        -0.4810023593E-03      0.1043056961E-02

    ------------------------------------------------
       NWT REQUIRED            4 OUTER ITERATIONS 
       AND A TOTAL OF          7 INNER ITERATIONS.
    ------------------------------------------------

 NO OUTPUT CONTROL FOR STRESS PERIOD   37   TIME STEP    7
 
 SOLVING FOR HEAD 
                                                   Max.-Head-Change                         Max.-Flux-Residual
  Residual-Control   Outer-Iter.   Inner-Iter.     Column Row Layer    Maximum-Head-Change  Column Row Layer    Maximum-Flux-Residual          L2-NORM 
          0                 1           2             4    7     1       0.3155048698E-01       4    7    1         0.1659498164E+01      0.3607404925E+01
          0                 2           2             4    7     1      -0.3069023600E-02       4    7    1        -0.1659512754E+00      0.3607407254E+00
          0                 3           2             4    7     1       0.2089889189E-03       4    7    1         0.1161658050E-01      0.2525179053E-01
          0                 4           1             4    7     1      -0.8315865860E-05       4    7    1        -0.4751188744E-03      0.1032794468E-02

    ------------------------------------------------
       NWT REQUIRED            4 OUTER ITERATIONS 
       AND A TOTAL OF          7 INNER ITERATIONS.
    ------------------------------------------------

 NO OUTPUT CONTROL FOR STRESS PERIOD   37   TIME STEP    8
 
 SOLVING FOR HEAD 
                                                   Max.-Head-Change                         Max.-Flux-Residual
  Residual-Control   Outer-Iter.   Inner-Iter.     Column Row Layer    Maximum-Head-Change  Column Row Layer    Maximum-Flux-Residual          L2-NORM 
          0                 1           2             4    7     1       0.3116828857E-01       4    7    1         0.1639296665E+01      0.3572161827E+01
          0                 2           2             4    7     1      -0.3031845581E-02       4    7    1        -0.1639310891E+00      0.3572163638E+00
          0                 3           2             4    7     1       0.2064572387E-03       4    7    1         0.1147516773E-01      0.2500508067E-01
          0                 4           1             4    7     1      -0.8215127829E-05       4    7    1        -0.4693350752E-03      0.1022908491E-02

    ------------------------------------------------
       NWT REQUIRED            4 OUTER ITERATIONS 
       AND A TOTAL OF          7 INNER ITERATIONS.
    ------------------------------------------------

 NO OUTPUT CONTROL FOR STRESS PERIOD   37   TIME STEP    9
 
 SOLVING FOR HEAD 
                                                   Max.-Head-Change                         Max.-Flux-Residual
  Residual-Control   Outer-Iter.   Inner-Iter.     Column Row Layer    Maximum-Head-Change  Column Row Layer    Maximum-Flux-Residual          L2-NORM 
          0                 1           2             4    7     1       0.3079254096E-01       4    7    1         0.1619436451E+01      0.3537510290E+01
          0                 2           2             4    7     1      -0.2995295063E-02       4    7    1        -0.1619450324E+00      0.3537511767E+00
          0                 3           2             4    7     1       0.2039682889E-03       4    7    1         0.1133614403E-01      0.2476252395E-01
          0                 4           1             4    7     1      -0.8116090116E-05       4    7    1        -0.4636489916E-03      0.1012792769E-02

    ------------------------------------------------
       NWT REQUIRED            4 OUTER ITERATIONS 
       AND A TOTAL OF          7 INNER ITERATIONS.
    ------------------------------------------------

 NO OUTPUT CONTROL FOR STRESS PERIOD   37   TIME STEP   10
 
 SOLVING FOR HEAD 
                                                   Max.-Head-Change                         Max.-Flux-Residual
  Residual-Control   Outer-Iter.   Inner-Iter.     Column Row Layer    Maximum-Head-Change  Column Row Layer    Maximum-Flux-Residual          L2-NORM 
          0                 1           2             4    7     1       0.3042324949E-01       4    7    1         0.1599917990E+01      0.3503441027E+01
          0                 2           2             4    7     1      -0.2959372568E-02       4    7    1        -0.1599931518E+00      0.3503437710E+00
          0                 3           2             4    7     1       0.2015221069E-03       4    7    1         0.1119951266E-01      0.2452541551E-01
          0                 4           1             4    7     1      -0.8018754450E-05       4    7    1        -0.4580607570E-03      0.1003086807E-02

    ------------------------------------------------
       NWT REQUIRED            4 OUTER ITERATIONS 
       AND A TOTAL OF          7 INNER ITERATIONS.
    ------------------------------------------------

 NO OUTPUT CONTROL FOR STRESS PERIOD   37   TIME STEP   11
 
 SOLVING FOR HEAD 
                                                   Max.-Head-Change                         Max.-Flux-Residual
  Residual-Control   Outer-Iter.   Inner-Iter.     Column Row Layer    Maximum-Head-Change  Column Row Layer    Maximum-Flux-Residual          L2-NORM 
          0                 1           2             4    7     1       0.3006014402E-01       4    7    1         0.1580726974E+01      0.3469928560E+01
          0                 2           2             4    7     1      -0.2924051789E-02       4    7    1        -0.1580740167E+00      0.3469752545E+00
          0                 3           2             4    7     1       0.1991168958E-03       4    7    1         0.1106517347E-01      0.2428819706E-01
          0                 4           1             4    7     1      -0.7923048300E-05       4    7    1        -0.4525662678E-03      0.9933799860E-03

    ------------------------------------------------
       NWT REQUIRED            4 OUTER ITERATIONS 
       AND A TOTAL OF          7 INNER ITERATIONS.
    ------------------------------------------------

 NO OUTPUT CONTROL FOR STRESS PERIOD   37   TIME STEP   12
 
 SOLVING FOR HEAD 
                                                   Max.-Head-Change                         Max.-Flux-Residual
  Residual-Control   Outer-Iter.   Inner-Iter.     Column Row Layer    Maximum-Head-Change  Column Row Layer    Maximum-Flux-Residual          L2-NORM 
          0                 1           2             4    7     1       0.2970323571E-01       4    7    1         0.1561863984E+01      0.3436986379E+01
          0                 2           2             4    7     1      -0.2889333884E-02       4    7    1        -0.1561876850E+00      0.3436987281E+00
          0                 3           2             4    7     1       0.1967527403E-03       4    7    1         0.1093313051E-01      0.2405884896E-01
          0                 4           1             4    7     1      -0.7828976502E-05       4    7    1        -0.4471657155E-03      0.9840050849E-03

    ------------------------------------------------
       NWT REQUIRED            4 OUTER ITERATIONS 
       AND A TOTAL OF          7 INNER ITERATIONS.
    ------------------------------------------------

 NO OUTPUT CONTROL FOR STRESS PERIOD   37   TIME STEP   13
 
 SOLVING FOR HEAD 
                                                   Max.-Head-Change                         Max.-Flux-Residual
  Residual-Control   Outer-Iter.   Inner-Iter.     Column Row Layer    Maximum-Head-Change  Column Row Layer    Maximum-Flux-Residual          L2-NORM 
          0                 1           2             4    7     1       0.2935225793E-01       4    7    1         0.1543315007E+01      0.3404576401E+01
          0                 2           2             4    7     1      -0.2855192849E-02       4    7    1        -0.1543327556E+00      0.3404576993E+00
          0                 3           2             4    7     1       0.1944278666E-03       4    7    1         0.1080328568E-01      0.2383197417E-01
          0                 4           1             4    7     1      -0.7736467446E-05       4    7    1        -0.4418550520E-03      0.9747663606E-03

    ------------------------------------------------
       NWT REQUIRED            4 OUTER ITERATIONS 
       AND A TOTAL OF          7 INNER ITERATIONS.
    ------------------------------------------------

 NO OUTPUT CONTROL FOR STRESS PERIOD   37   TIME STEP   14
 
 SOLVING FOR HEAD 
                                                   Max.-Head-Change                         Max.-Flux-Residual
  Residual-Control   Outer-Iter.   Inner-Iter.     Column Row Layer    Maximum-Head-Change  Column Row Layer    Maximum-Flux-Residual          L2-NORM 
          0                 1           2             4    7     1       0.2900722540E-01       4    7    1         0.1525080812E+01      0.3372695643E+01
          0                 2           2             4    7     1      -0.2821630137E-02       4    7    1        -0.1525093052E+00      0.3372695719E+00
          0                 3           2             4    7     1       0.1921423750E-03       4    7    1         0.1067564439E-01      0.2360879379E-01
          0                 4           1             4    7     1      -0.7645525967E-05       4    7    1        -0.4366345217E-03      0.9655956619E-03

    ------------------------------------------------
       NWT REQUIRED            4 OUTER ITERATIONS 
       AND A TOTAL OF          7 INNER ITERATIONS.
    ------------------------------------------------

 NO OUTPUT CONTROL FOR STRESS PERIOD   37   TIME STEP   15
 
 SOLVING FOR HEAD 
                                                   Max.-Head-Change                         Max.-Flux-Residual
  Residual-Control   Outer-Iter.   Inner-Iter.     Column Row Layer    Maximum-Head-Change  Column Row Layer    Maximum-Flux-Residual          L2-NORM 
          0                 1           2             4    7     1       0.2866801373E-01       4    7    1         0.1507154865E+01      0.3341331719E+01
          0                 2           2             4    7     1      -0.2788633650E-02       4    7    1        -0.1507166805E+00      0.3341331785E+00
          0                 3           2             4    7     1       0.1898954407E-03       4    7    1         0.1055016089E-01      0.2338925489E-01
          0                 4           1             4    7     1      -0.7556118103E-05       4    7    1        -0.4315022252E-03      0.9566162188E-03

    ------------------------------------------------
       NWT REQUIRED            4 OUTER ITERATIONS 
       AND A TOTAL OF          7 INNER ITERATIONS.
    ------------------------------------------------

 NO OUTPUT CONTROL FOR STRESS PERIOD   37   TIME STEP   16
 
 SOLVING FOR HEAD 
                                                   Max.-Head-Change                         Max.-Flux-Residual
  Residual-Control   Outer-Iter.   Inner-Iter.     Column Row Layer    Maximum-Head-Change  Column Row Layer    Maximum-Flux-Residual          L2-NORM 
          0                 1           2             4    7     1       0.2833450060E-01       4    7    1         0.1489530719E+01      0.3310470749E+01
          0                 2           2             4    7     1      -0.2756191827E-02       4    7    1        -0.1489542366E+00      0.3310446916E+00
          0                 3           2             4    7     1       0.1876866092E-03       4    7    1         0.1042679004E-01      0.2318118780E-01
          0                 4           1             4    7     1      -0.7468226699E-05       4    7    1        -0.4264563522E-03      0.9481004047E-03

    ------------------------------------------------
       NWT REQUIRED            4 OUTER ITERATIONS 
       AND A TOTAL OF          7 INNER ITERATIONS.
    ------------------------------------------------

 NO OUTPUT CONTROL FOR STRESS PERIOD   37   TIME STEP   17
 
 SOLVING FOR HEAD 
                                                   Max.-Head-Change                         Max.-Flux-Residual
  Residual-Control   Outer-Iter.   Inner-Iter.     Column Row Layer    Maximum-Head-Change  Column Row Layer    Maximum-Flux-Residual          L2-NORM 
          0                 1           2             4    7     1       0.2800656519E-01       4    7    1         0.1472202031E+01      0.3280100182E+01
          0                 2           2             4    7     1      -0.2724287799E-02       4    7    1        -0.1472213394E+00      0.3279138960E+00
          0                 3           2             4    7     1       0.1855137353E-03       4    7    1         0.1030548746E-01      0.2295388558E-01
          0                 4           1             4    7     1      -0.7381765756E-05       4    7    1        -0.4214950766E-03      0.9387943142E-03

    ------------------------------------------------
       NWT REQUIRED            4 OUTER ITERATIONS 
       AND A TOTAL OF          7 INNER ITERATIONS.
    ------------------------------------------------

 NO OUTPUT CONTROL FOR STRESS PERIOD   37   TIME STEP   18
 
 SOLVING FOR HEAD 
                                                   Max.-Head-Change                         Max.-Flux-Residual
  Residual-Control   Outer-Iter.   Inner-Iter.     Column Row Layer    Maximum-Head-Change  Column Row Layer    Maximum-Flux-Residual          L2-NORM 
          0                 1           2             4    7     1       0.2768410529E-01       4    7    1         0.1455162755E+01      0.3250298148E+01
          0                 2           2             4    7     1      -0.2692924932E-02       4    7    1        -0.1455173840E+00      0.3250297775E+00
          0                 3           2             4    7     1       0.1833780447E-03       4    7    1         0.1018621081E-01      0.2275201489E-01
          0                 4           1             4    7     1      -0.7296785124E-05       4    7    1        -0.4166166586E-03      0.9305576917E-03

    ------------------------------------------------
       NWT REQUIRED            4 OUTER ITERATIONS 
       AND A TOTAL OF          7 INNER ITERATIONS.
    ------------------------------------------------

 NO OUTPUT CONTROL FOR STRESS PERIOD   37   TIME STEP   19
 
 SOLVING FOR HEAD 
                                                   Max.-Head-Change                         Max.-Flux-Residual
  Residual-Control   Outer-Iter.   Inner-Iter.     Column Row Layer    Maximum-Head-Change  Column Row Layer    Maximum-Flux-Residual          L2-NORM 
          0                 1           2             4    7     1       0.2736713300E-01       4    7    1         0.1438414233E+01      0.3220974581E+01
          0                 2           2             4    7     1      -0.2662091774E-02       4    7    1        -0.1438425049E+00      0.3220973919E+00
          0                 3           2             4    7     1       0.1812784244E-03       4    7    1         0.1006896944E-01      0.2254674830E-01
          0                 4           1             4    7     1      -0.7213239097E-05       4    7    1        -0.4118214886E-03      0.9221790952E-03

    ------------------------------------------------
       NWT REQUIRED            4 OUTER ITERATIONS 
       AND A TOTAL OF          7 INNER ITERATIONS.
    ------------------------------------------------

 NO OUTPUT CONTROL FOR STRESS PERIOD   37   TIME STEP   20
 
 SOLVING FOR HEAD 
                                                   Max.-Head-Change                         Max.-Flux-Residual
  Residual-Control   Outer-Iter.   Inner-Iter.     Column Row Layer    Maximum-Head-Change  Column Row Layer    Maximum-Flux-Residual          L2-NORM 
          0                 1           2             4    7     1       0.2705526592E-01       4    7    1         0.1421935857E+01      0.3192097790E+01
          0                 2           2             4    7     1      -0.2631755224E-02       4    7    1        -0.1421946411E+00      0.3192096810E+00
          0                 3           2             4    7     1       0.1792126215E-03       4    7    1         0.9953619190E-02      0.2234460071E-01
          0                 4           1             4    7     1      -0.7131038565E-05       4    7    1        -0.4071036385E-03      0.9138878869E-03

    ------------------------------------------------
       NWT REQUIRED            4 OUTER ITERATIONS 
       AND A TOTAL OF          7 INNER ITERATIONS.
    ------------------------------------------------

 NO OUTPUT CONTROL FOR STRESS PERIOD   37   TIME STEP   21
 
 SOLVING FOR HEAD 
                                                   Max.-Head-Change                         Max.-Flux-Residual
  Residual-Control   Outer-Iter.   Inner-Iter.     Column Row Layer    Maximum-Head-Change  Column Row Layer    Maximum-Flux-Residual          L2-NORM 
          0                 1           2             4    7     1       0.2674867300E-01       4    7    1         0.1405736771E+01      0.3163678176E+01
          0                 2           2             4    7     1      -0.2601931725E-02       4    7    1        -0.1405747069E+00      0.3163677286E+00
          0                 3           2             4    7     1       0.1771817550E-03       4    7    1         0.9840223990E-02      0.2214567750E-01
          0                 4           1             4    7     1      -0.7050228546E-05       4    7    1        -0.4024657785E-03      0.9057465641E-03

    ------------------------------------------------
       NWT REQUIRED            4 OUTER ITERATIONS 
       AND A TOTAL OF          7 INNER ITERATIONS.
    ------------------------------------------------

 NO OUTPUT CONTROL FOR STRESS PERIOD   37   TIME STEP   22
 
 SOLVING FOR HEAD 
                                                   Max.-Head-Change                         Max.-Flux-Residual
  Residual-Control   Outer-Iter.   Inner-Iter.     Column Row Layer    Maximum-Head-Change  Column Row Layer    Maximum-Flux-Residual          L2-NORM 
          0                 1           2             4    7     1       0.2644723763E-01       4    7    1         0.1389811140E+01      0.3135693363E+01
          0                 2           2             4    7     1      -0.2572609973E-02       4    7    1        -0.1389821190E+00      0.3135692593E+00
          0                 3           2             4    7     1       0.1751850559E-03       4    7    1         0.9728743015E-02      0.2194976922E-01
          0                 4           1             4    7     1      -0.6970778068E-05       4    7    1        -0.3979061958E-03      0.8977444268E-03

    ------------------------------------------------
       NWT REQUIRED            4 OUTER ITERATIONS 
       AND A TOTAL OF          7 INNER ITERATIONS.
    ------------------------------------------------

 NO OUTPUT CONTROL FOR STRESS PERIOD   37   TIME STEP   23
 
 SOLVING FOR HEAD 
                                                   Max.-Head-Change                         Max.-Flux-Residual
  Residual-Control   Outer-Iter.   Inner-Iter.     Column Row Layer    Maximum-Head-Change  Column Row Layer    Maximum-Flux-Residual          L2-NORM 
          0                 1           2             4    7     1       0.2615071931E-01       4    7    1         0.1374145617E+01      0.3108144456E+01
          0                 2           2             4    7     1      -0.2543766468E-02       4    7    1        -0.1374155426E+00      0.3108143495E+00
          0                 3           2             4    7     1       0.1732209236E-03       4    7    1         0.9619082846E-02      0.2175693019E-01
          0                 4           1             4    7     1      -0.6892623696E-05       4    7    1        -0.3934210881E-03      0.8898441352E-03

    ------------------------------------------------
       NWT REQUIRED            4 OUTER ITERATIONS 
       AND A TOTAL OF          7 INNER ITERATIONS.
    ------------------------------------------------

 NO OUTPUT CONTROL FOR STRESS PERIOD   37   TIME STEP   24
 
 SOLVING FOR HEAD 
                                                   Max.-Head-Change                         Max.-Flux-Residual
  Residual-Control   Outer-Iter.   Inner-Iter.     Column Row Layer    Maximum-Head-Change  Column Row Layer    Maximum-Flux-Residual          L2-NORM 
          0                 1           2             4    7     1       0.2585901306E-01       4    7    1         0.1358735036E+01      0.3081006307E+01
          0                 2           2             4    7     1      -0.2515391055E-02       4    7    1        -0.1358744610E+00      0.3081005162E+00
          0                 3           2             4    7     1       0.1712886666E-03       4    7    1         0.9511207321E-02      0.2156696078E-01
          0                 4           1             4    7     1      -0.6815736764E-05       4    7    1        -0.3890089606E-03      0.8820963928E-03

    ------------------------------------------------
       NWT REQUIRED            4 OUTER ITERATIONS 
       AND A TOTAL OF          7 INNER ITERATIONS.
    ------------------------------------------------

 NO OUTPUT CONTROL FOR STRESS PERIOD   37   TIME STEP   25
 
 SOLVING FOR HEAD 
                                                   Max.-Head-Change                         Max.-Flux-Residual
  Residual-Control   Outer-Iter.   Inner-Iter.     Column Row Layer    Maximum-Head-Change  Column Row Layer    Maximum-Flux-Residual          L2-NORM 
          0                 1           2             4    7     1       0.2557215290E-01       4    7    1         0.1343581251E+01      0.3054280387E+01
          0                 2           2             4    7     1      -0.2487487046E-02       4    7    1        -0.1343590596E+00      0.3054278856E+00
          0                 3           2             4    7     1       0.1693885103E-03       4    7    1         0.9405129394E-02      0.2137987009E-01
          0                 4           1             4    7     1      -0.6740127864E-05       4    7    1        -0.3846703705E-03      0.8744373030E-03

    ------------------------------------------------
       NWT REQUIRED            4 OUTER ITERATIONS 
       AND A TOTAL OF          7 INNER ITERATIONS.
    ------------------------------------------------

 NO OUTPUT CONTROL FOR STRESS PERIOD   37   TIME STEP   26
 
 SOLVING FOR HEAD 
                                                   Max.-Head-Change                         Max.-Flux-Residual
  Residual-Control   Outer-Iter.   Inner-Iter.     Column Row Layer    Maximum-Head-Change  Column Row Layer    Maximum-Flux-Residual          L2-NORM 
          0                 1           2             4    7     1       0.2529003454E-01       4    7    1         0.1328678727E+01      0.3027961319E+01
          0                 2           2             4    7     1      -0.2460044291E-02       4    7    1        -0.1328687850E+00      0.3027959557E+00
          0                 3           2             4    7     1       0.1675197635E-03       4    7    1         0.9300810322E-02      0.2119563832E-01
          0                 4           1             4    7     1      -0.6665768789E-05       4    7    1        -0.3804037112E-03      0.8669051094E-03

    ------------------------------------------------
       NWT REQUIRED            4 OUTER ITERATIONS 
       AND A TOTAL OF          7 INNER ITERATIONS.
    ------------------------------------------------

 NO OUTPUT CONTROL FOR STRESS PERIOD   37   TIME STEP   27
 
 SOLVING FOR HEAD 
                                                   Max.-Head-Change                         Max.-Flux-Residual
  Residual-Control   Outer-Iter.   Inner-Iter.     Column Row Layer    Maximum-Head-Change  Column Row Layer    Maximum-Flux-Residual          L2-NORM 
          0                 1           2             4    7     1       0.2501255746E-01       4    7    1         0.1314022056E+01      0.3002038235E+01
          0                 2           2             4    7     1      -0.2433053017E-02       4    7    1        -0.1314030962E+00      0.3002036277E+00
          0                 3           2             4    7     1       0.1656817613E-03       4    7    1         0.9198212292E-02      0.2101418434E-01
          0                 4           1             4    7     1      -0.6592632945E-05       4    7    1        -0.3762074466E-03      0.8594779127E-03

    ------------------------------------------------
       NWT REQUIRED            4 OUTER ITERATIONS 
       AND A TOTAL OF          7 INNER ITERATIONS.
    ------------------------------------------------

 NO OUTPUT CONTROL FOR STRESS PERIOD   37   TIME STEP   28
 
 SOLVING FOR HEAD 
                                                   Max.-Head-Change                         Max.-Flux-Residual
  Residual-Control   Outer-Iter.   Inner-Iter.     Column Row Layer    Maximum-Head-Change  Column Row Layer    Maximum-Flux-Residual          L2-NORM 
          0                 1           2             4    7     1       0.2473962021E-01       4    7    1         0.1299606028E+01      0.2976498641E+01
          0                 2           2             4    7     1      -0.2406503354E-02       4    7    1        -0.1299614723E+00      0.2976496525E+00
          0                 3           2             4    7     1       0.1638738307E-03       4    7    1         0.9097298770E-02      0.2083540231E-01
          0                 4           1             4    7     1      -0.6520693852E-05       4    7    1        -0.3720800762E-03      0.8521658511E-03

    ------------------------------------------------
       NWT REQUIRED            4 OUTER ITERATIONS 
       AND A TOTAL OF          7 INNER ITERATIONS.
    ------------------------------------------------

 NO OUTPUT CONTROL FOR STRESS PERIOD   37   TIME STEP   29
 
 SOLVING FOR HEAD 
                                                   Max.-Head-Change                         Max.-Flux-Residual
  Residual-Control   Outer-Iter.   Inner-Iter.     Column Row Layer    Maximum-Head-Change  Column Row Layer    Maximum-Flux-Residual          L2-NORM 
          0                 1           2             4    7     1       0.2447099154E-01       4    7    1         0.1285418080E+01      0.2951343471E+01
          0                 2           2             4    7     1      -0.2380372805E-02       4    7    1        -0.1285426570E+00      0.2951341142E+00
          0                 3           2             4    7     1       0.1620944401E-03       4    7    1         0.8997981844E-02      0.2065931050E-01
          0                 4           1             4    7     1      -0.6449890032E-05       4    7    1        -0.3680180059E-03      0.8449572461E-03

    ------------------------------------------------
       NWT REQUIRED            4 OUTER ITERATIONS 
       AND A TOTAL OF          7 INNER ITERATIONS.
    ------------------------------------------------

 NO OUTPUT CONTROL FOR STRESS PERIOD   37   TIME STEP   30



 STREAM LISTING     PERIOD     37   STEP       30

 LAYER ROW COL. STREAM  RCH.  FLOW INTO     FLOW TO   FLOW OUT OF   OVRLND.     DIRECT     STREAM       STREAM     STREAM     STREAM   STREAMBED  STREAMBED
                SEG.NO.  NO.  STRM. RCH.    AQUIFER    STRM. RCH.    RUNOFF     PRECIP       ET          HEAD       DEPTH      WIDTH   CONDCTNC.   GRADIENT

   1    1    1     1     1    1.9000E+01  2.1427E-01   1.8786E+01  0.000E+00  0.000E+00  0.000E+00  1.09413E+03  1.082E+00  1.166E+01  5.249E-02  1.361E+00
   1    2    2     1     2    1.8786E+01  3.3054E-01   1.8455E+01  0.000E+00  0.000E+00  0.000E+00  1.08914E+03  1.077E+00  1.158E+01  8.107E-02  1.359E+00
   1    3    3     1     3    1.8455E+01  2.8064E-01   1.8175E+01  0.000E+00  0.000E+00  0.000E+00  1.08349E+03  1.072E+00  1.149E+01  6.892E-02  1.357E+00
   1    3    4     1     4    1.8175E+01  2.5740E-01   1.7917E+01  0.000E+00  0.000E+00  0.000E+00  1.07848E+03  1.068E+00  1.140E+01  6.328E-02  1.356E+00
   1    4    5     2     1    1.5917E+01  3.0542E-01   1.5612E+01  0.000E+00  0.000E+00  0.000E+00  1.07285E+03  9.157E-01  1.200E+01  7.800E-02  1.305E+00
   1    5    6     2     2    1.5612E+01  2.3438E-01   1.5377E+01  0.000E+00  0.000E+00  0.000E+00  1.06742E+03  9.063E-01  1.200E+01  6.000E-02  1.302E+00
   1    6    6     2     3    1.5377E+01  2.3388E-01   1.5143E+01  0.000E+00  0.000E+00  0.000E+00  1.06269E+03  8.980E-01  1.200E+01  6.000E-02  1.299E+00
   1    7    6     2     4    1.5143E+01  2.3338E-01   1.4910E+01  0.000E+00  0.000E+00  0.000E+00  1.05797E+03  8.897E-01  1.200E+01  6.000E-02  1.297E+00
   1    8    6     2     5    1.4910E+01  2.3289E-01   1.4677E+01  0.000E+00  0.000E+00  0.000E+00  1.05324E+03  8.814E-01  1.200E+01  6.000E-02  1.294E+00
   1    3    5     3     1    2.0000E+00  2.8252E-01   1.7175E+00  0.000E+00  0.000E+00  0.000E+00  1.07555E+03  1.909E+00  9.636E+00  7.227E-02  1.955E+00
   1    3    6     3     2    1.7175E+00  2.4905E-01   1.4684E+00  0.000E+00  0.000E+00  0.000E+00  1.07264E+03  1.727E+00  8.909E+00  6.682E-02  1.864E+00
   1    3    7     3     3    1.4684E+00  1.9718E-01   1.2712E+00  0.000E+00  0.000E+00  0.000E+00  1.06987E+03  1.555E+00  8.218E+00  5.547E-02  1.777E+00
   1    4    8     3     4    1.2712E+00  2.2567E-01   1.0456E+00  0.000E+00  0.000E+00  0.000E+00  1.06682E+03  1.364E+00  7.455E+00  6.709E-02  1.682E+00
   1    5    8     3     5    1.0456E+00  1.5790E-01   8.8768E-01  0.000E+00  0.000E+00  0.000E+00  1.06362E+03  1.164E+00  6.655E+00  4.991E-02  1.582E+00
   1    6    8     3     6    8.8768E-01  5.5980E-02   8.3170E-01  0.000E+00  0.000E+00  0.000E+00  1.06158E+03  1.036E+00  6.145E+00  1.844E-02  1.518E+00
   1    5   10     4     1    1.0000E+01  9.0919E-02   9.9091E+00  0.000E+00  0.000E+00  0.000E+00  1.07836E+03  6.368E-01  1.000E+01  2.500E-02  1.212E+00
   1    5    9     4     2    9.9091E+00  1.8158E-01   9.7275E+00  0.000E+00  0.000E+00  0.000E+00  1.07154E+03  6.315E-01  1.000E+01  5.000E-02  1.211E+00
   1    6    8     4     3    9.7275E+00  1.2689E-01   9.6006E+00  0.000E+00  0.000E+00  0.000E+00  1.06381E+03  6.256E-01  1.000E+01  3.500E-02  1.209E+00
   1    6    8     5     1    1.0432E+01  2.2686E-01   1.0205E+01  0.000E+00  0.000E+00  0.000E+00  1.05868E+03  6.790E-01  1.542E+01  6.166E-02  1.226E+00
   1    7    7     5     2    1.0205E+01  2.7894E-01   9.9265E+00  0.000E+00  0.000E+00  0.000E+00  1.05417E+03  6.732E-01  1.519E+01  7.594E-02  1.224E+00
   1    8    7     5     3    9.9265E+00  1.9221E-01   9.7343E+00  0.000E+00  0.000E+00  0.000E+00  1.04992E+03  6.676E-01  1.497E+01  5.241E-02  1.223E+00
   1    8    6     5     4    9.7343E+00  1.3577E-01   9.5985E+00  0.000E+00  0.000E+00  0.000E+00  1.04691E+03  6.637E-01  1.482E+01  3.706E-02  1.221E+00
   1    9    6     6     1    2.4276E+01  2.5176E-01   2.4024E+01  0.000E+00  0.000E+00  0.000E+00  1.04392E+03  1.196E+00  1.200E+01  6.000E-02  1.399E+00
   1   10    7     6     2    2.4024E+01  2.5131E-01   2.3773E+01  0.000E+00  0.000E+00  0.000E+00  1.03937E+03  1.188E+00  1.200E+01  6.000E-02  1.396E+00
   1   11    7     6     3    2.3773E+01  2.5086E-01   2.3522E+01  0.000E+00  0.000E+00  0.000E+00  1.03482E+03  1.181E+00  1.200E+01  6.000E-02  1.394E+00
   1   12    7     6     4    2.3522E+01  2.5041E-01   2.3271E+01  0.000E+00  0.000E+00  0.000E+00  1.03026E+03  1.173E+00  1.200E+01  6.000E-02  1.391E+00
   1   13    7     6     5    2.3271E+01  8.3053E-03   2.3263E+01  0.000E+00  0.000E+00  0.000E+00  1.02708E+03  1.170E+00  1.200E+01  2.400E-02  1.154E-01
   1   14    9     7     1    1.5000E+02  1.3590E+00   1.4864E+02  0.000E+00  0.000E+00  0.000E+00  1.03987E+03  2.288E+00  5.529E+01  5.593E-01  8.100E-01
   1   13    8     7     2    1.4864E+02  1.9329E+00   1.4671E+02  0.000E+00  0.000E+00  0.000E+00  1.03478E+03  2.279E+00  5.526E+01  6.148E-01  1.048E+00
   1   13    7     7     3    1.4671E+02  1.6507E+00   1.4506E+02  0.000E+00  0.000E+00  0.000E+00  1.02969E+03  2.269E+00  5.521E+01  5.584E-01  9.854E-01
   1   13    6     8     1    1.6832E+02  1.0928E+00   1.6723E+02  0.000E+00  0.000E+00  0.000E+00  1.02481E+03  2.938E+00  4.260E+01  4.341E-01  8.392E-01
   1   13    5     8     2    1.6723E+02  3.3969E-01   1.6689E+02  0.000E+00  0.000E+00  0.000E+00  1.01856E+03  2.933E+00  4.253E+01  4.334E-01  2.613E-01
   1   13    4     8     3    1.6689E+02 -1.8732E+00   1.6876E+02  0.000E+00  0.000E+00  0.000E+00  1.01231E+03  2.938E+00  4.260E+01  4.341E+00 -1.438E-01
   1   13    3     8     4    1.6876E+02 -3.3833E+00   1.7214E+02  0.000E+00  0.000E+00  0.000E+00  1.00608E+03  2.955E+00  4.285E+01  4.367E+00 -2.583E-01
   1   13    2     8     5    1.7214E+02 -2.5142E+00   1.7466E+02  0.000E+00  0.000E+00  0.000E+00  9.99849E+02  2.974E+00  4.313E+01  4.395E+00 -1.907E-01
   1   13    1     8     6    1.7466E+02 -1.9665E+00   1.7663E+02  0.000E+00  0.000E+00  0.000E+00  9.94864E+02  2.989E+00  4.333E+01  2.650E+00 -2.474E-01





UNSATURATED ZONE PACKAGE VOLUMETRIC BUDGET FOR  TIME STEP    30 STRESS PERIOD   37
  ------------------------------------------------------------------------------



     CUMULATIVE VOLUMES      L**3       RATES FOR THIS TIME STEP      L**3/T
     ------------------                 ------------------------

           IN:                                      IN:
           ---                                      ---
        INFILTRATION =  1611132854.3618          INFILTRATION =           4.4075

          OUT:                                     OUT:
          ----                                     ----
              UZF ET =  1499761623.1899                UZF ET =           0.7250
        UZF RECHARGE =      884424.5976          UZF RECHARGE =       0.0000E+00

            IN - OUT =   110486806.5743              IN - OUT =           3.6825

          STORAGE:                                 STORAGE:
          --------                                 --------
      STORAGE CHANGE =   110487735.5439        STORAGE CHANGE =           3.6825

 PERCENT DISCREPANCY IS DIFFERENCE BETWEEN IN-OUT MINUS CHANGE IN STORAGE
 DIVIDED BY THE AVERAGE OF IN AND OUT TIMES 100

 PERCENT DISCREPANCY =          -0.00     PERCENT DISCREPANCY =           0.00






1
  VOLUMETRIC BUDGET FOR AGRICULTURAL FIELDS AT TIME STEP   30, STRESS PERIOD  37
  ------------------------------------------------------------------------------

     CUMULATIVE VOLUMES      L**3       RATES FOR THIS TIME STEP      L**3/T
     ------------------                 ------------------------

           IN:                                      IN:
           ---                                      ---
               AG WELLS  =  1193757312.0000                 AG WELLS  =           0.0000
      DIVERSION SEGMENTS =           0.0000        DIVERSION SEGMENTS =           0.0000
           GW IRRIGATION =           0.0000             GW IRRIGATION =           0.0000
           SW IRRIGATION =           0.0000             SW IRRIGATION =           0.0000
        SYSTEM LOSSES GW =           0.0000          SYSTEM LOSSES GW =           0.0000
        SYSTEM LOSSES SW =           0.0000          SYSTEM LOSSES SW =           0.0000

                TOTAL IN =  1193757312.0000                  TOTAL IN =           0.0000

          OUT:                                     OUT:
          ----                                     ----
               AG WELLS  =           0.0000                 AG WELLS  =           0.0000
      DIVERSION SEGMENTS =           0.0000        DIVERSION SEGMENTS =           0.0000
           GW IRRIGATION =  1193757312.0000             GW IRRIGATION =           0.0000
           SW IRRIGATION =           0.0000             SW IRRIGATION =           0.0000
        SYSTEM LOSSES GW =           0.0000          SYSTEM LOSSES GW =           0.0000
        SYSTEM LOSSES SW =           0.0000          SYSTEM LOSSES SW =           0.0000

               TOTAL OUT =  1193757312.0000                 TOTAL OUT =           0.0000

                IN - OUT =           0.0000                  IN - OUT =           0.0000

     PERCENT DISCREPANCY =           0.00         PERCENT DISCREPANCY =           0.00



1
  VOLUMETRIC BUDGET FOR ENTIRE MODEL AT END OF TIME STEP   30, STRESS PERIOD  37
  ------------------------------------------------------------------------------

     CUMULATIVE VOLUMES      L**3       RATES FOR THIS TIME STEP      L**3/T
     ------------------                 ------------------------

           IN:                                      IN:
           ---                                      ---
             STORAGE     =  1636362240.0000               STORAGE     =           7.4923
       CONSTANT HEAD     =           0.0000         CONSTANT HEAD     =           0.0000
     HEAD DEP BOUNDS     =    27087262.0000       HEAD DEP BOUNDS     =           0.2873
      STREAM LEAKAGE     =  1160181504.0000        STREAM LEAKAGE     =          12.1120
        UZF RECHARGE     =      884424.5000          UZF RECHARGE     =           0.0000
               GW ET     =           0.0000                 GW ET     =           0.0000
     SURFACE LEAKAGE     =           0.0000       SURFACE LEAKAGE     =           0.0000
           AG WELLS      =           0.0000             AG WELLS      =           0.0000

                TOTAL IN =  2824515328.0000                  TOTAL IN =          19.8917

          OUT:                                     OUT:
          ----                                     ----
             STORAGE     =   612484608.0000               STORAGE     =           9.8654
       CONSTANT HEAD     =           0.0000         CONSTANT HEAD     =           0.0000
     HEAD DEP BOUNDS     =    27713756.0000       HEAD DEP BOUNDS     =           0.2890
      STREAM LEAKAGE     =   973217728.0000        STREAM LEAKAGE     =           9.7372
        UZF RECHARGE     =           0.0000          UZF RECHARGE     =           0.0000
               GW ET     =    17343536.0000                 GW ET     =           0.0000
     SURFACE LEAKAGE     =           0.0000       SURFACE LEAKAGE     =           0.0000
           AG WELLS      =  1193757312.0000             AG WELLS      =           0.0000

               TOTAL OUT =  2824516864.0000                 TOTAL OUT =          19.8916

                IN - OUT =       -1536.0000                  IN - OUT =       1.5259E-05

     PERCENT DISCREPANCY =          -0.00         PERCENT DISCREPANCY =           0.00






         TIME SUMMARY AT END OF TIME STEP   30 IN STRESS PERIOD   37
                    SECONDS     MINUTES      HOURS       DAYS        YEARS
                    -----------------------------------------------------------
   TIME STEP LENGTH  87667.      1461.1      24.352      1.0147     2.77799E-03
 STRESS PERIOD TIME 2.63000E+06  43833.      730.56      30.440     8.33397E-02
         TOTAL TIME 9.47660E+07 1.57943E+06  26324.      1096.8      3.0030    
1
1
                            STRESS PERIOD NO.   38, LENGTH =   2630000.    
                            -----------------------------------------------

                              NUMBER OF TIME STEPS =    30

                               MULTIPLIER FOR DELT =     1.000

                            INITIAL TIME STEP SIZE =   87666.66    

 REUSING NON-PARAMETER GHB CELLS FROM LAST STRESS PERIOD

      2 GHB CELLS

 REUSING STREAM SEGMENT DATA FROM LAST STRESS PERIOD



            AREAL INFILTRATION RATE
 READING ON UNIT   19 WITH FORMAT: (10F4.0)            

            1           2           3           4           5           6           7           8           9          10
 ........................................................................................................................
   1   1.2000E-09   0.000       0.000       0.000       0.000       0.000       0.000       0.000       0.000       0.000    
   2   2.1000E-09  2.0000E-09  8.0000E-10  8.5000E-09   0.000       0.000       0.000       0.000       0.000       0.000    
   3   5.0000E-10  1.1000E-09  8.8000E-09  5.5000E-09   0.000       0.000       0.000       0.000       0.000       0.000    
   4   8.5000E-09  1.1000E-09  1.1000E-09  1.1000E-09  2.0000E-09   0.000       0.000       0.000       0.000       0.000    
   5   8.5000E-09  1.1000E-09  1.1000E-09  1.1000E-09  1.1000E-09   0.000       0.000       0.000       0.000       0.000    
   6   8.5000E-09  5.2000E-09  2.1000E-09  1.1000E-09  1.5000E-09   0.000       0.000       0.000       0.000       0.000    
   7   8.5000E-09  5.2000E-09  2.1000E-09  1.2000E-09  2.0000E-09   0.000       0.000       0.000       0.000       0.000    
   8   5.0000E-10  5.2000E-09  2.1000E-09  1.2000E-09  5.0000E-09   0.000       0.000       0.000       0.000       0.000    
   9   5.0000E-10  5.2000E-09  2.1000E-09  1.2000E-09  5.0000E-09   0.000       0.000       0.000       0.000       0.000    
  10   5.0000E-10  5.2000E-09  2.1000E-09  1.2000E-09  5.8000E-09   0.000       0.000       0.000       0.000       0.000    
  11   1.0000E-10  1.1000E-09  1.1000E-09  1.2000E-09  5.0000E-09   0.000       0.000       0.000       0.000       0.000    
  12   1.1000E-09  1.1000E-09  1.1000E-09  1.1000E-09  2.0000E-09   0.000       0.000       0.000       0.000       0.000    
  13   1.1000E-09  2.2000E-09  2.2000E-09  2.1000E-09  1.0000E-09   0.000       0.000       0.000       0.000       0.000    
  14   2.0000E-10  5.5000E-09  5.5000E-09  5.2000E-09  1.0000E-09   0.000       0.000       0.000       0.000       0.000    
  15    0.000      8.8000E-09  8.8000E-09   0.000       0.000       0.000       0.000       0.000       0.000       0.000    

                  ET RATE =  5.000000E-10

 USING ET EXTINCTION DEPTH FROM PREVIOUS STRESS PERIOD. CURRENT PERIOD IS:      38

 USING EXTINCTION WATER CONTENT FROM PREVIOUS STRESS PERIOD. CURRENT PERIOD IS:      38

 USING AIR ENTRY PRESSURE FROM PREVIOUS STRESS PERIOD. CURRENT PERIOD IS:      38

 USING ROOT PRESSURE HEAD FROM PREVIOUS STRESS PERIOD. CURRENT PERIOD IS:      38

 USING ROOT ACTIVITY FROM PREVIOUS STRESS PERIOD. CURRENT PERIOD IS:      38

 PROCESSING AG STRESS PERIOD DATA

 READING AG STRESS PERIOD DATA

 READING IRRIGATION WELL

 END PROCESSING AG STRESS PERIOD DATA OPTIONS
 
 SOLVING FOR HEAD 
                                                   Max.-Head-Change                         Max.-Flux-Residual
  Residual-Control   Outer-Iter.   Inner-Iter.     Column Row Layer    Maximum-Head-Change  Column Row Layer    Maximum-Flux-Residual          L2-NORM 
          0                 1           2             4    7     1       0.2420671142E-01       4    7    1         0.1271460824E+01      0.2926548782E+01
          0                 2           2             4    7     1      -0.2354665260E-02       4    7    1        -0.1271469115E+00      0.2926546052E+00
          0                 3           2             4    7     1       0.1603438544E-03       4    7    1         0.8900279801E-02      0.2048573763E-01
          0                 4           1             4    7     1      -0.6380232653E-05       4    7    1        -0.3640219911E-03      0.8378634698E-03

    ------------------------------------------------
       NWT REQUIRED            4 OUTER ITERATIONS 
       AND A TOTAL OF          7 INNER ITERATIONS.
    ------------------------------------------------

 NO OUTPUT CONTROL FOR STRESS PERIOD   38   TIME STEP    1
 
 SOLVING FOR HEAD 
                                                   Max.-Head-Change                         Max.-Flux-Residual
  Residual-Control   Outer-Iter.   Inner-Iter.     Column Row Layer    Maximum-Head-Change  Column Row Layer    Maximum-Flux-Residual          L2-NORM 
          0                 1           2             4    7     1       0.2394682622E-01       4    7    1         0.1257736334E+01      0.2902131618E+01
          0                 2           2             4    7     1      -0.2329385393E-02       4    7    1        -0.1257744431E+00      0.2902271607E+00
          0                 3           2             4    7     1       0.1586223921E-03       4    7    1         0.8804207168E-02      0.2031576596E-01
          0                 4           1             4    7     1      -0.6311734034E-05       4    7    1        -0.3600926052E-03      0.8309133610E-03

    ------------------------------------------------
       NWT REQUIRED            4 OUTER ITERATIONS 
       AND A TOTAL OF          7 INNER ITERATIONS.
    ------------------------------------------------

 NO OUTPUT CONTROL FOR STRESS PERIOD   38   TIME STEP    2
 
 SOLVING FOR HEAD 
                                                   Max.-Head-Change                         Max.-Flux-Residual
  Residual-Control   Outer-Iter.   Inner-Iter.     Column Row Layer    Maximum-Head-Change  Column Row Layer    Maximum-Flux-Residual          L2-NORM 
          0                 1           2             4    7     1       0.2369110099E-01       4    7    1         0.1244232403E+01      0.2878057677E+01
          0                 2           2             4    7     1      -0.2304509858E-02       4    7    1        -0.1244240311E+00      0.2878054745E+00
          0                 3           2             4    7     1       0.1569284633E-03       4    7    1         0.8709678466E-02      0.2014630507E-01
          0                 4           1             4    7     1      -0.6244330968E-05       4    7    1        -0.3562263848E-03      0.8239833366E-03

    ------------------------------------------------
       NWT REQUIRED            4 OUTER ITERATIONS 
       AND A TOTAL OF          7 INNER ITERATIONS.
    ------------------------------------------------

 NO OUTPUT CONTROL FOR STRESS PERIOD   38   TIME STEP    3
 
 SOLVING FOR HEAD 
                                                   Max.-Head-Change                         Max.-Flux-Residual
  Residual-Control   Outer-Iter.   Inner-Iter.     Column Row Layer    Maximum-Head-Change  Column Row Layer    Maximum-Flux-Residual          L2-NORM 
          0                 1           2             4    7     1       0.2343944260E-01       4    7    1         0.1230944176E+01      0.2854293043E+01
          0                 2           2             4    7     1      -0.2280030087E-02       4    7    1        -0.1230951901E+00      0.2854290056E+00
          0                 3           2             4    7     1       0.1552614841E-03       4    7    1         0.8616659717E-02      0.1997994741E-01
          0                 4           1             4    7     1      -0.6178000547E-05       4    7    1        -0.3524219128E-03      0.8171775526E-03

    ------------------------------------------------
       NWT REQUIRED            4 OUTER ITERATIONS 
       AND A TOTAL OF          7 INNER ITERATIONS.
    ------------------------------------------------

 NO OUTPUT CONTROL FOR STRESS PERIOD   38   TIME STEP    4
 
 SOLVING FOR HEAD 
                                                   Max.-Head-Change                         Max.-Flux-Residual
  Residual-Control   Outer-Iter.   Inner-Iter.     Column Row Layer    Maximum-Head-Change  Column Row Layer    Maximum-Flux-Residual          L2-NORM 
          0                 1           2             4    7     1       0.2319176513E-01       4    7    1         0.1217866799E+01      0.2830869057E+01
          0                 2           2             4    7     1      -0.2255937557E-02       4    7    1        -0.1217874344E+00      0.2830865741E+00
          0                 3           2             4    7     1       0.1536208749E-03       4    7    1         0.8525116962E-02      0.1981598553E-01
          0                 4           1             4    7     1      -0.6112718822E-05       4    7    1        -0.3486778014E-03      0.8104742139E-03

    ------------------------------------------------
       NWT REQUIRED            4 OUTER ITERATIONS 
       AND A TOTAL OF          7 INNER ITERATIONS.
    ------------------------------------------------

 NO OUTPUT CONTROL FOR STRESS PERIOD   38   TIME STEP    5
 
 SOLVING FOR HEAD 
                                                   Max.-Head-Change                         Max.-Flux-Residual
  Residual-Control   Outer-Iter.   Inner-Iter.     Column Row Layer    Maximum-Head-Change  Column Row Layer    Maximum-Flux-Residual          L2-NORM 
          0                 1           2             4    7     1       0.2294798546E-01       4    7    1         0.1204995824E+01      0.2807786283E+01
          0                 2           2             4    7     1      -0.2232224184E-02       4    7    1        -0.1205003195E+00      0.2807782941E+00
          0                 3           2             4    7     1       0.1520060842E-03       4    7    1         0.8435019033E-02      0.1965440016E-01
          0                 4           1             4    7     1      -0.6048464842E-05       4    7    1        -0.3449927847E-03      0.8038597003E-03

    ------------------------------------------------
       NWT REQUIRED            4 OUTER ITERATIONS 
       AND A TOTAL OF          7 INNER ITERATIONS.
    ------------------------------------------------

 NO OUTPUT CONTROL FOR STRESS PERIOD   38   TIME STEP    6
 
 SOLVING FOR HEAD 
                                                   Max.-Head-Change                         Max.-Flux-Residual
  Residual-Control   Outer-Iter.   Inner-Iter.     Column Row Layer    Maximum-Head-Change  Column Row Layer    Maximum-Flux-Residual          L2-NORM 
          0                 1           2             4    7     1       0.2270815046E-01       4    7    1         0.1192334246E+01      0.2785029081E+01
          0                 2           2             4    7     1      -0.2208894528E-02       4    7    1        -0.1192341448E+00      0.2785025487E+00
          0                 3           2             4    7     1       0.1504174239E-03       4    7    1         0.8346386927E-02      0.1949508753E-01
          0                 4           1             4    7     1      -0.5985250925E-05       4    7    1        -0.3413677425E-03      0.7973480958E-03

    ------------------------------------------------
       NWT REQUIRED            4 OUTER ITERATIONS 
       AND A TOTAL OF          7 INNER ITERATIONS.
    ------------------------------------------------

 NO OUTPUT CONTROL FOR STRESS PERIOD   38   TIME STEP    7
 
 SOLVING FOR HEAD 
                                                   Max.-Head-Change                         Max.-Flux-Residual
  Residual-Control   Outer-Iter.   Inner-Iter.     Column Row Layer    Maximum-Head-Change  Column Row Layer    Maximum-Flux-Residual          L2-NORM 
          0                 1           2             4    7     1       0.2247203929E-01       4    7    1         0.1179869890E+01      0.2762602526E+01
          0                 2           2             4    7     1      -0.2185927105E-02       4    7    1        -0.1179876927E+00      0.2762598667E+00
          0                 3           2             4    7     1       0.1488534298E-03       4    7    1         0.8259135390E-02      0.1933810650E-01
          0                 4           1             4    7     1      -0.5923017779E-05       4    7    1        -0.3377991468E-03      0.7909284558E-03

    ------------------------------------------------
       NWT REQUIRED            4 OUTER ITERATIONS 
       AND A TOTAL OF          7 INNER ITERATIONS.
    ------------------------------------------------

 NO OUTPUT CONTROL FOR STRESS PERIOD   38   TIME STEP    8
 
 SOLVING FOR HEAD 
                                                   Max.-Head-Change                         Max.-Flux-Residual
  Residual-Control   Outer-Iter.   Inner-Iter.     Column Row Layer    Maximum-Head-Change  Column Row Layer    Maximum-Flux-Residual          L2-NORM 
          0                 1           2             4    7     1       0.2223970728E-01       4    7    1         0.1167605911E+01      0.2740491252E+01
          0                 2           2             4    7     1      -0.2163327298E-02       4    7    1        -0.1167612787E+00      0.2740487186E+00
          0                 3           2             4    7     1       0.1473144687E-03       4    7    1         0.8173286530E-02      0.1918331504E-01
          0                 4           1             4    7     1      -0.5861780833E-05       4    7    1        -0.3342878967E-03      0.7845933479E-03

    ------------------------------------------------
       NWT REQUIRED            4 OUTER ITERATIONS 
       AND A TOTAL OF          7 INNER ITERATIONS.
    ------------------------------------------------

 NO OUTPUT CONTROL FOR STRESS PERIOD   38   TIME STEP    9
 
 SOLVING FOR HEAD 
                                                   Max.-Head-Change                         Max.-Flux-Residual
  Residual-Control   Outer-Iter.   Inner-Iter.     Column Row Layer    Maximum-Head-Change  Column Row Layer    Maximum-Flux-Residual          L2-NORM 
          0                 1           2             4    7     1       0.2201093694E-01       4    7    1         0.1155530570E+01      0.2718696046E+01
          0                 2           2             4    7     1      -0.2141073950E-02       4    7    1        -0.1155537290E+00      0.2718691945E+00
          0                 3           2             4    7     1       0.1457991008E-03       4    7    1         0.8088758173E-02      0.1903076738E-01
          0                 4           1             4    7     1      -0.5801482983E-05       4    7    1        -0.3308307009E-03      0.7783515085E-03

    ------------------------------------------------
       NWT REQUIRED            4 OUTER ITERATIONS 
       AND A TOTAL OF          7 INNER ITERATIONS.
    ------------------------------------------------

 NO OUTPUT CONTROL FOR STRESS PERIOD   38   TIME STEP   10
 
 SOLVING FOR HEAD 
                                                   Max.-Head-Change                         Max.-Flux-Residual
  Residual-Control   Outer-Iter.   Inner-Iter.     Column Row Layer    Maximum-Head-Change  Column Row Layer    Maximum-Flux-Residual          L2-NORM 
          0                 1           2             4    7     1       0.2178578610E-01       4    7    1         0.1143647200E+01      0.2697197707E+01
          0                 2           2             4    7     1      -0.2119172688E-02       4    7    1        -0.1143653768E+00      0.2697193537E+00
          0                 3           2             4    7     1       0.1443077086E-03       4    7    1         0.8005573636E-02      0.1888026145E-01
          0                 4           1             4    7     1      -0.5742139310E-05       4    7    1        -0.3274284552E-03      0.7721913399E-03

    ------------------------------------------------
       NWT REQUIRED            4 OUTER ITERATIONS 
       AND A TOTAL OF          7 INNER ITERATIONS.
    ------------------------------------------------

 NO OUTPUT CONTROL FOR STRESS PERIOD   38   TIME STEP   11
 
 SOLVING FOR HEAD 
                                                   Max.-Head-Change                         Max.-Flux-Residual
  Residual-Control   Outer-Iter.   Inner-Iter.     Column Row Layer    Maximum-Head-Change  Column Row Layer    Maximum-Flux-Residual          L2-NORM 
          0                 1           2             4    7     1       0.2156404455E-01       4    7    1         0.1131944191E+01      0.2676011140E+01
          0                 2           2             4    7     1      -0.2097603061E-02       4    7    1        -0.1131950610E+00      0.2676006782E+00
          0                 3           2             4    7     1       0.1428388989E-03       4    7    1         0.7923651616E-02      0.1873196318E-01
          0                 4           1             4    7     1      -0.5683694093E-05       4    7    1        -0.3240778419E-03      0.7661350617E-03

    ------------------------------------------------
       NWT REQUIRED            4 OUTER ITERATIONS 
       AND A TOTAL OF          7 INNER ITERATIONS.
    ------------------------------------------------

 NO OUTPUT CONTROL FOR STRESS PERIOD   38   TIME STEP   12
 
 SOLVING FOR HEAD 
                                                   Max.-Head-Change                         Max.-Flux-Residual
  Residual-Control   Outer-Iter.   Inner-Iter.     Column Row Layer    Maximum-Head-Change  Column Row Layer    Maximum-Flux-Residual          L2-NORM 
          0                 1           2             4    7     1       0.2134590664E-01       4    7    1         0.1120432557E+01      0.2655118662E+01
          0                 2           2             4    7     1      -0.2076383977E-02       4    7    1        -0.1120438832E+00      0.2655114137E+00
          0                 3           2             4    7     1       0.1413939600E-03       4    7    1         0.7843069284E-02      0.1858571518E-01
          0                 4           1             4    7     1      -0.5626198333E-05       4    7    1        -0.3207820050E-03      0.7601919507E-03

    ------------------------------------------------
       NWT REQUIRED            4 OUTER ITERATIONS 
       AND A TOTAL OF          7 INNER ITERATIONS.
    ------------------------------------------------

 NO OUTPUT CONTROL FOR STRESS PERIOD   38   TIME STEP   13
 
 SOLVING FOR HEAD 
                                                   Max.-Head-Change                         Max.-Flux-Residual
  Residual-Control   Outer-Iter.   Inner-Iter.     Column Row Layer    Maximum-Head-Change  Column Row Layer    Maximum-Flux-Residual          L2-NORM 
          0                 1           2             4    7     1       0.2113102404E-01       4    7    1         0.1109093155E+01      0.2634514258E+01
          0                 2           2             4    7     1      -0.2055481551E-02       4    7    1        -0.1109099290E+00      0.2634509633E+00
          0                 3           2             4    7     1       0.1399705843E-03       4    7    1         0.7763692574E-02      0.1844147255E-01
          0                 4           1             4    7     1      -0.5569561310E-05       4    7    1        -0.3175355039E-03      0.7542507121E-03

    ------------------------------------------------
       NWT REQUIRED            4 OUTER ITERATIONS 
       AND A TOTAL OF          7 INNER ITERATIONS.
    ------------------------------------------------

 NO OUTPUT CONTROL FOR STRESS PERIOD   38   TIME STEP   14
 
 SOLVING FOR HEAD 
                                                   Max.-Head-Change                         Max.-Flux-Residual
  Residual-Control   Outer-Iter.   Inner-Iter.     Column Row Layer    Maximum-Head-Change  Column Row Layer    Maximum-Flux-Residual          L2-NORM 
          0                 1           2             4    7     1       0.2091932698E-01       4    7    1         0.1097922534E+01      0.2614189697E+01
          0                 2           2             4    7     1      -0.2034888997E-02       4    7    1        -0.1097928532E+00      0.2614184720E+00
          0                 3           2             4    7     1       0.1385683095E-03       4    7    1         0.7685497367E-02      0.1829919467E-01
          0                 4           1             4    7     1      -0.5513763337E-05       4    7    1        -0.3143373017E-03      0.7484350957E-03

    ------------------------------------------------
       NWT REQUIRED            4 OUTER ITERATIONS 
       AND A TOTAL OF          7 INNER ITERATIONS.
    ------------------------------------------------

 NO OUTPUT CONTROL FOR STRESS PERIOD   38   TIME STEP   15
 
 SOLVING FOR HEAD 
                                                   Max.-Head-Change                         Max.-Flux-Residual
  Residual-Control   Outer-Iter.   Inner-Iter.     Column Row Layer    Maximum-Head-Change  Column Row Layer    Maximum-Flux-Residual          L2-NORM 
          0                 1           2             4    7     1       0.2071101977E-01       4    7    1         0.1086931690E+01      0.2594144792E+01
          0                 2           2             4    7     1      -0.2014666418E-02       4    7    1        -0.1086937556E+00      0.2594679478E+00
          0                 3           2             4    7     1       0.1371912291E-03       4    7    1         0.7608560638E-02      0.1816266956E-01
          0                 4           1             4    7     1      -0.5458968010E-05       4    7    1        -0.3111905958E-03      0.7428404729E-03

    ------------------------------------------------
       NWT REQUIRED            4 OUTER ITERATIONS 
       AND A TOTAL OF          7 INNER ITERATIONS.
    ------------------------------------------------

 NO OUTPUT CONTROL FOR STRESS PERIOD   38   TIME STEP   16
 
 SOLVING FOR HEAD 
                                                   Max.-Head-Change                         Max.-Flux-Residual
  Residual-Control   Outer-Iter.   Inner-Iter.     Column Row Layer    Maximum-Head-Change  Column Row Layer    Maximum-Flux-Residual          L2-NORM 
          0                 1           2             4    7     1       0.2050560429E-01       4    7    1         0.1076099847E+01      0.2574330507E+01
          0                 2           2             4    7     1      -0.1994644688E-02       4    7    1        -0.1076105586E+00      0.2574325537E+00
          0                 3           2             4    7     1       0.1358278249E-03       4    7    1         0.7532736920E-02      0.1802018487E-01
          0                 4           1             4    7     1      -0.5404716661E-05       4    7    1        -0.3080893946E-03      0.7370288287E-03

    ------------------------------------------------
       NWT REQUIRED            4 OUTER ITERATIONS 
       AND A TOTAL OF          7 INNER ITERATIONS.
    ------------------------------------------------

 NO OUTPUT CONTROL FOR STRESS PERIOD   38   TIME STEP   17
 
 SOLVING FOR HEAD 
                                                   Max.-Head-Change                         Max.-Flux-Residual
  Residual-Control   Outer-Iter.   Inner-Iter.     Column Row Layer    Maximum-Head-Change  Column Row Layer    Maximum-Flux-Residual          L2-NORM 
          0                 1           2             4    7     1       0.2030341836E-01       4    7    1         0.1065436837E+01      0.2554752405E+01
          0                 2           2             4    7     1      -0.1974977324E-02       4    7    1        -0.1065442452E+00      0.2554747509E+00
          0                 3           2             4    7     1       0.1344885523E-03       4    7    1         0.7458095072E-02      0.1788315390E-01
          0                 4           1             4    7     1      -0.5351425822E-05       4    7    1        -0.3050365324E-03      0.7314151470E-03

    ------------------------------------------------
       NWT REQUIRED            4 OUTER ITERATIONS 
       AND A TOTAL OF          7 INNER ITERATIONS.
    ------------------------------------------------

 NO OUTPUT CONTROL FOR STRESS PERIOD   38   TIME STEP   18
 
 SOLVING FOR HEAD 
                                                   Max.-Head-Change                         Max.-Flux-Residual
  Residual-Control   Outer-Iter.   Inner-Iter.     Column Row Layer    Maximum-Head-Change  Column Row Layer    Maximum-Flux-Residual          L2-NORM 
          0                 1           2             4    7     1       0.2010409006E-01       4    7    1         0.1054924515E+01      0.2535440887E+01
          0                 2           2             4    7     1      -0.1955587936E-02       4    7    1        -0.1054930008E+00      0.2535435644E+00
          0                 3           2             4    7     1       0.1331682085E-03       4    7    1         0.7384508045E-02      0.1774796395E-01
          0                 4           1             4    7     1      -0.5298888032E-05       4    7    1        -0.3020268198E-03      0.7259260499E-03

    ------------------------------------------------
       NWT REQUIRED            4 OUTER ITERATIONS 
       AND A TOTAL OF          7 INNER ITERATIONS.
    ------------------------------------------------

 NO OUTPUT CONTROL FOR STRESS PERIOD   38   TIME STEP   19
 
 SOLVING FOR HEAD 
                                                   Max.-Head-Change                         Max.-Flux-Residual
  Residual-Control   Outer-Iter.   Inner-Iter.     Column Row Layer    Maximum-Head-Change  Column Row Layer    Maximum-Flux-Residual          L2-NORM 
          0                 1           2             4    7     1       0.1990783542E-01       4    7    1         0.1044574972E+01      0.2516393278E+01
          0                 2           2             4    7     1      -0.1936497534E-02       4    7    1        -0.1044580346E+00      0.2516388091E+00
          0                 3           2             4    7     1       0.1318682246E-03       4    7    1         0.7312060492E-02      0.1761464395E-01
          0                 4           1             4    7     1      -0.5247160280E-05       4    7    1        -0.2990637081E-03      0.7204314469E-03

    ------------------------------------------------
       NWT REQUIRED            4 OUTER ITERATIONS 
       AND A TOTAL OF          7 INNER ITERATIONS.
    ------------------------------------------------

 NO OUTPUT CONTROL FOR STRESS PERIOD   38   TIME STEP   20
 
 SOLVING FOR HEAD 
                                                   Max.-Head-Change                         Max.-Flux-Residual
  Residual-Control   Outer-Iter.   Inner-Iter.     Column Row Layer    Maximum-Head-Change  Column Row Layer    Maximum-Flux-Residual          L2-NORM 
          0                 1           2             4    7     1       0.1971432311E-01       4    7    1         0.1034370177E+01      0.2497599201E+01
          0                 2           2             4    7     1      -0.1917673891E-02       4    7    1        -0.1034375435E+00      0.2497593982E+00
          0                 3           2             4    7     1       0.1305864059E-03       4    7    1         0.7240626183E-02      0.1748308211E-01
          0                 4           1             4    7     1      -0.5196155645E-05       4    7    1        -0.2961420421E-03      0.7150440995E-03

    ------------------------------------------------
       NWT REQUIRED            4 OUTER ITERATIONS 
       AND A TOTAL OF          7 INNER ITERATIONS.
    ------------------------------------------------

 NO OUTPUT CONTROL FOR STRESS PERIOD   38   TIME STEP   21
 
 SOLVING FOR HEAD 
                                                   Max.-Head-Change                         Max.-Flux-Residual
  Residual-Control   Outer-Iter.   Inner-Iter.     Column Row Layer    Maximum-Head-Change  Column Row Layer    Maximum-Flux-Residual          L2-NORM 
          0                 1           2             4    7     1       0.1952377556E-01       4    7    1         0.1024322183E+01      0.2479066685E+01
          0                 2           2             4    7     1      -0.1899138642E-02       4    7    1        -0.1024327328E+00      0.2479061207E+00
          0                 3           2             4    7     1       0.1293242261E-03       4    7    1         0.7170289527E-02      0.1735334919E-01
          0                 4           1             4    7     1      -0.5145932726E-05       4    7    1        -0.2932652828E-03      0.7097537043E-03

    ------------------------------------------------
       NWT REQUIRED            4 OUTER ITERATIONS 
       AND A TOTAL OF          7 INNER ITERATIONS.
    ------------------------------------------------

 NO OUTPUT CONTROL FOR STRESS PERIOD   38   TIME STEP   22
 
 SOLVING FOR HEAD 
                                                   Max.-Head-Change                         Max.-Flux-Residual
  Residual-Control   Outer-Iter.   Inner-Iter.     Column Row Layer    Maximum-Head-Change  Column Row Layer    Maximum-Flux-Residual          L2-NORM 
          0                 1           2             4    7     1       0.1933599453E-01       4    7    1         0.1014420599E+01      0.2460775677E+01
          0                 2           2             4    7     1      -0.1880872503E-02       4    7    1        -0.1014425634E+00      0.2460770331E+00
          0                 3           2             4    7     1       0.1280803712E-03       4    7    1         0.7100977739E-02      0.1722531557E-01
          0                 4           1             4    7     1      -0.5096438104E-05       4    7    1        -0.2904304063E-03      0.7045092902E-03

    ------------------------------------------------
       NWT REQUIRED            4 OUTER ITERATIONS 
       AND A TOTAL OF          7 INNER ITERATIONS.
    ------------------------------------------------

 NO OUTPUT CONTROL FOR STRESS PERIOD   38   TIME STEP   23
 
 SOLVING FOR HEAD 
                                                   Max.-Head-Change                         Max.-Flux-Residual
  Residual-Control   Outer-Iter.   Inner-Iter.     Column Row Layer    Maximum-Head-Change  Column Row Layer    Maximum-Flux-Residual          L2-NORM 
          0                 1           2             4    7     1       0.1915092739E-01       4    7    1         0.1004662453E+01      0.2442733251E+01
          0                 2           2             4    7     1      -0.1862870357E-02       4    7    1        -0.1004667381E+00      0.2442735098E+00
          0                 3           2             4    7     1       0.1268544934E-03       4    7    1         0.7032670036E-02      0.1710027258E-01
          0                 4           1             4    7     1      -0.5047659346E-05       4    7    1        -0.2876366279E-03      0.6994964221E-03

    ------------------------------------------------
       NWT REQUIRED            4 OUTER ITERATIONS 
       AND A TOTAL OF          7 INNER ITERATIONS.
    ------------------------------------------------

 NO OUTPUT CONTROL FOR STRESS PERIOD   38   TIME STEP   24
 
 SOLVING FOR HEAD 
                                                   Max.-Head-Change                         Max.-Flux-Residual
  Residual-Control   Outer-Iter.   Inner-Iter.     Column Row Layer    Maximum-Head-Change  Column Row Layer    Maximum-Flux-Residual          L2-NORM 
          0                 1           2             4    7     1       0.1896852392E-01       4    7    1         0.9950450187E+00      0.2424923723E+01
          0                 2           2             4    7     1      -0.1845127318E-02       4    7    1        -0.9950498411E-01      0.2424918001E+00
          0                 3           2             4    7     1       0.1256462599E-03       4    7    1         0.6965347338E-02      0.1697435073E-01
          0                 4           1             4    7     1      -0.4999582636E-05       4    7    1        -0.2848831266E-03      0.6942425100E-03

    ------------------------------------------------
       NWT REQUIRED            4 OUTER ITERATIONS 
       AND A TOTAL OF          7 INNER ITERATIONS.
    ------------------------------------------------

 NO OUTPUT CONTROL FOR STRESS PERIOD   38   TIME STEP   25
 
 SOLVING FOR HEAD 
                                                   Max.-Head-Change                         Max.-Flux-Residual
  Residual-Control   Outer-Iter.   Inner-Iter.     Column Row Layer    Maximum-Head-Change  Column Row Layer    Maximum-Flux-Residual          L2-NORM 
          0                 1           2             4    7     1       0.1878873035E-01       4    7    1         0.9855656906E+00      0.2407353761E+01
          0                 2           2             4    7     1      -0.1827638153E-02       4    7    1        -0.9855704104E-01      0.2407347876E+00
          0                 3           2             4    7     1       0.1244553139E-03       4    7    1         0.6898991384E-02      0.1685134906E-01
          0                 4           1             4    7     1      -0.4952193813E-05       4    7    1        -0.2821691573E-03      0.6892183533E-03

    ------------------------------------------------
       NWT REQUIRED            4 OUTER ITERATIONS 
       AND A TOTAL OF          7 INNER ITERATIONS.
    ------------------------------------------------

 NO OUTPUT CONTROL FOR STRESS PERIOD   38   TIME STEP   26
 
 SOLVING FOR HEAD 
                                                   Max.-Head-Change                         Max.-Flux-Residual
  Residual-Control   Outer-Iter.   Inner-Iter.     Column Row Layer    Maximum-Head-Change  Column Row Layer    Maximum-Flux-Residual          L2-NORM 
          0                 1           2             4    7     1       0.1861163224E-01       4    7    1         0.9762289916E+00      0.2390015502E+01
          0                 2           2             4    7     1      -0.1810411188E-02       4    7    1        -0.9762336117E-01      0.2390009669E+00
          0                 3           2             4    7     1       0.1232822229E-03       4    7    1         0.6833633870E-02      0.1672999951E-01
          0                 4           1             4    7     1      -0.4905515327E-05       4    7    1        -0.2794960271E-03      0.6843792784E-03

    ------------------------------------------------
       NWT REQUIRED            4 OUTER ITERATIONS 
       AND A TOTAL OF          7 INNER ITERATIONS.
    ------------------------------------------------

 NO OUTPUT CONTROL FOR STRESS PERIOD   38   TIME STEP   27
 
 SOLVING FOR HEAD 
                                                   Max.-Head-Change                         Max.-Flux-Residual
  Residual-Control   Outer-Iter.   Inner-Iter.     Column Row Layer    Maximum-Head-Change  Column Row Layer    Maximum-Flux-Residual          L2-NORM 
          0                 1           2             4    7     1       0.1843704014E-01       4    7    1         0.9670247370E+00      0.2372903478E+01
          0                 2           2             4    7     1      -0.1793427992E-02       4    7    1        -0.9670292594E-01      0.2372897486E+00
          0                 3           2             4    7     1       0.1221257315E-03       4    7    1         0.6769203454E-02      0.1661019286E-01
          0                 4           1             4    7     1      -0.4859497213E-05       4    7    1        -0.2768608247E-03      0.6793430328E-03

    ------------------------------------------------
       NWT REQUIRED            4 OUTER ITERATIONS 
       AND A TOTAL OF          7 INNER ITERATIONS.
    ------------------------------------------------

 NO OUTPUT CONTROL FOR STRESS PERIOD   38   TIME STEP   28
 
 SOLVING FOR HEAD 
                                                   Max.-Head-Change                         Max.-Flux-Residual
  Residual-Control   Outer-Iter.   Inner-Iter.     Column Row Layer    Maximum-Head-Change  Column Row Layer    Maximum-Flux-Residual          L2-NORM 
          0                 1           2             4    7     1       0.1826503946E-01       4    7    1         0.9579577259E+00      0.2356015341E+01
          0                 2           2             4    7     1      -0.1776696874E-02       4    7    1        -0.9579621534E-01      0.2356009123E+00
          0                 3           1             4    7     1       0.1209864096E-03       4    7    1         0.6705733769E-02      0.1649197717E-01
          0                 4           1             4    7     1      -0.4814166527E-05       4    7    1        -0.2742649199E-03      0.6745240120E-03

    ------------------------------------------------
       NWT REQUIRED            4 OUTER ITERATIONS 
       AND A TOTAL OF          6 INNER ITERATIONS.
    ------------------------------------------------

 NO OUTPUT CONTROL FOR STRESS PERIOD   38   TIME STEP   29
 
 SOLVING FOR HEAD 
                                                   Max.-Head-Change                         Max.-Flux-Residual
  Residual-Control   Outer-Iter.   Inner-Iter.     Column Row Layer    Maximum-Head-Change  Column Row Layer    Maximum-Flux-Residual          L2-NORM 
          0                 1           2             4    7     1       0.1809544385E-01       4    7    1         0.9490177647E+00      0.2339344876E+01
          0                 2           2             4    7     1      -0.1760199708E-02       4    7    1        -0.9490220992E-01      0.2339338886E+00
          0                 3           1             4    7     1       0.1198630152E-03       4    7    1         0.6643153458E-02      0.1637530850E-01
          0                 4           1             4    7     1      -0.4769465358E-05       4    7    1        -0.2717053753E-03      0.6697536312E-03

    ------------------------------------------------
       NWT REQUIRED            4 OUTER ITERATIONS 
       AND A TOTAL OF          6 INNER ITERATIONS.
    ------------------------------------------------

 NO OUTPUT CONTROL FOR STRESS PERIOD   38   TIME STEP   30



 STREAM LISTING     PERIOD     38   STEP       30

 LAYER ROW COL. STREAM  RCH.  FLOW INTO     FLOW TO   FLOW OUT OF   OVRLND.     DIRECT     STREAM       STREAM     STREAM     STREAM   STREAMBED  STREAMBED
                SEG.NO.  NO.  STRM. RCH.    AQUIFER    STRM. RCH.    RUNOFF     PRECIP       ET          HEAD       DEPTH      WIDTH   CONDCTNC.   GRADIENT

   1    1    1     1     1    1.9000E+01  2.1427E-01   1.8786E+01  0.000E+00  0.000E+00  0.000E+00  1.09413E+03  1.082E+00  1.166E+01  5.249E-02  1.361E+00
   1    2    2     1     2    1.8786E+01  3.3054E-01   1.8455E+01  0.000E+00  0.000E+00  0.000E+00  1.08914E+03  1.077E+00  1.158E+01  8.107E-02  1.359E+00
   1    3    3     1     3    1.8455E+01  2.8064E-01   1.8175E+01  0.000E+00  0.000E+00  0.000E+00  1.08349E+03  1.072E+00  1.149E+01  6.892E-02  1.357E+00
   1    3    4     1     4    1.8175E+01  2.5740E-01   1.7917E+01  0.000E+00  0.000E+00  0.000E+00  1.07848E+03  1.068E+00  1.140E+01  6.328E-02  1.356E+00
   1    4    5     2     1    1.5917E+01  3.0542E-01   1.5612E+01  0.000E+00  0.000E+00  0.000E+00  1.07285E+03  9.157E-01  1.200E+01  7.800E-02  1.305E+00
   1    5    6     2     2    1.5612E+01  2.3438E-01   1.5377E+01  0.000E+00  0.000E+00  0.000E+00  1.06742E+03  9.063E-01  1.200E+01  6.000E-02  1.302E+00
   1    6    6     2     3    1.5377E+01  2.3388E-01   1.5143E+01  0.000E+00  0.000E+00  0.000E+00  1.06269E+03  8.980E-01  1.200E+01  6.000E-02  1.299E+00
   1    7    6     2     4    1.5143E+01  2.3338E-01   1.4910E+01  0.000E+00  0.000E+00  0.000E+00  1.05797E+03  8.897E-01  1.200E+01  6.000E-02  1.297E+00
   1    8    6     2     5    1.4910E+01  2.3289E-01   1.4677E+01  0.000E+00  0.000E+00  0.000E+00  1.05324E+03  8.814E-01  1.200E+01  6.000E-02  1.294E+00
   1    3    5     3     1    2.0000E+00  2.8252E-01   1.7175E+00  0.000E+00  0.000E+00  0.000E+00  1.07555E+03  1.909E+00  9.636E+00  7.227E-02  1.955E+00
   1    3    6     3     2    1.7175E+00  2.4905E-01   1.4684E+00  0.000E+00  0.000E+00  0.000E+00  1.07264E+03  1.727E+00  8.909E+00  6.682E-02  1.864E+00
   1    3    7     3     3    1.4684E+00  1.9718E-01   1.2712E+00  0.000E+00  0.000E+00  0.000E+00  1.06987E+03  1.555E+00  8.218E+00  5.547E-02  1.777E+00
   1    4    8     3     4    1.2712E+00  2.2567E-01   1.0456E+00  0.000E+00  0.000E+00  0.000E+00  1.06682E+03  1.364E+00  7.455E+00  6.709E-02  1.682E+00
   1    5    8     3     5    1.0456E+00  1.5790E-01   8.8768E-01  0.000E+00  0.000E+00  0.000E+00  1.06362E+03  1.164E+00  6.655E+00  4.991E-02  1.582E+00
   1    6    8     3     6    8.8768E-01  5.5980E-02   8.3170E-01  0.000E+00  0.000E+00  0.000E+00  1.06158E+03  1.036E+00  6.145E+00  1.844E-02  1.518E+00
   1    5   10     4     1    1.0000E+01  9.0919E-02   9.9091E+00  0.000E+00  0.000E+00  0.000E+00  1.07836E+03  6.368E-01  1.000E+01  2.500E-02  1.212E+00
   1    5    9     4     2    9.9091E+00  1.8158E-01   9.7275E+00  0.000E+00  0.000E+00  0.000E+00  1.07154E+03  6.315E-01  1.000E+01  5.000E-02  1.211E+00
   1    6    8     4     3    9.7275E+00  1.2689E-01   9.6006E+00  0.000E+00  0.000E+00  0.000E+00  1.06381E+03  6.256E-01  1.000E+01  3.500E-02  1.209E+00
   1    6    8     5     1    1.0432E+01  2.2686E-01   1.0205E+01  0.000E+00  0.000E+00  0.000E+00  1.05868E+03  6.790E-01  1.542E+01  6.166E-02  1.226E+00
   1    7    7     5     2    1.0205E+01  2.7894E-01   9.9265E+00  0.000E+00  0.000E+00  0.000E+00  1.05417E+03  6.732E-01  1.519E+01  7.594E-02  1.224E+00
   1    8    7     5     3    9.9265E+00  1.9221E-01   9.7343E+00  0.000E+00  0.000E+00  0.000E+00  1.04992E+03  6.676E-01  1.497E+01  5.241E-02  1.223E+00
   1    8    6     5     4    9.7343E+00  1.3577E-01   9.5985E+00  0.000E+00  0.000E+00  0.000E+00  1.04691E+03  6.637E-01  1.482E+01  3.706E-02  1.221E+00
   1    9    6     6     1    2.4276E+01  2.5176E-01   2.4024E+01  0.000E+00  0.000E+00  0.000E+00  1.04392E+03  1.196E+00  1.200E+01  6.000E-02  1.399E+00
   1   10    7     6     2    2.4024E+01  2.5131E-01   2.3773E+01  0.000E+00  0.000E+00  0.000E+00  1.03937E+03  1.188E+00  1.200E+01  6.000E-02  1.396E+00
   1   11    7     6     3    2.3773E+01  2.5086E-01   2.3522E+01  0.000E+00  0.000E+00  0.000E+00  1.03482E+03  1.181E+00  1.200E+01  6.000E-02  1.394E+00
   1   12    7     6     4    2.3522E+01  2.5041E-01   2.3271E+01  0.000E+00  0.000E+00  0.000E+00  1.03026E+03  1.173E+00  1.200E+01  6.000E-02  1.391E+00
   1   13    7     6     5    2.3271E+01  8.8467E-03   2.3263E+01  0.000E+00  0.000E+00  0.000E+00  1.02708E+03  1.170E+00  1.200E+01  2.400E-02  1.229E-01
   1   14    9     7     1    1.5000E+02  1.3609E+00   1.4864E+02  0.000E+00  0.000E+00  0.000E+00  1.03987E+03  2.288E+00  5.529E+01  5.593E-01  8.111E-01
   1   13    8     7     2    1.4864E+02  1.9391E+00   1.4670E+02  0.000E+00  0.000E+00  0.000E+00  1.03478E+03  2.279E+00  5.525E+01  6.148E-01  1.051E+00
   1   13    7     7     3    1.4670E+02  1.6632E+00   1.4504E+02  0.000E+00  0.000E+00  0.000E+00  1.02969E+03  2.269E+00  5.521E+01  5.584E-01  9.929E-01
   1   13    6     8     1    1.6830E+02  1.1052E+00   1.6719E+02  0.000E+00  0.000E+00  0.000E+00  1.02481E+03  2.937E+00  4.259E+01  4.340E-01  8.488E-01
   1   13    5     8     2    1.6719E+02  3.5106E-01   1.6684E+02  0.000E+00  0.000E+00  0.000E+00  1.01856E+03  2.933E+00  4.252E+01  4.333E-01  2.700E-01
   1   13    4     8     3    1.6684E+02 -1.8360E+00   1.6868E+02  0.000E+00  0.000E+00  0.000E+00  1.01231E+03  2.938E+00  4.259E+01  4.341E+00 -1.410E-01
   1   13    3     8     4    1.6868E+02 -3.3638E+00   1.7204E+02  0.000E+00  0.000E+00  0.000E+00  1.00608E+03  2.955E+00  4.284E+01  4.366E+00 -2.568E-01
   1   13    2     8     5    1.7204E+02 -2.5098E+00   1.7455E+02  0.000E+00  0.000E+00  0.000E+00  9.99849E+02  2.974E+00  4.312E+01  4.394E+00 -1.904E-01
   1   13    1     8     6    1.7455E+02 -1.9655E+00   1.7652E+02  0.000E+00  0.000E+00  0.000E+00  9.94863E+02  2.988E+00  4.332E+01  2.649E+00 -2.473E-01





UNSATURATED ZONE PACKAGE VOLUMETRIC BUDGET FOR  TIME STEP    30 STRESS PERIOD   38
  ------------------------------------------------------------------------------



     CUMULATIVE VOLUMES      L**3       RATES FOR THIS TIME STEP      L**3/T
     ------------------                 ------------------------

           IN:                                      IN:
           ---                                      ---
        INFILTRATION =  1622724578.9199          INFILTRATION =           4.4075

          OUT:                                     OUT:
          ----                                     ----
              UZF ET =  1501668390.9313                UZF ET =           0.7250
        UZF RECHARGE =      884424.5976          UZF RECHARGE =       0.0000E+00

            IN - OUT =   120171763.3911              IN - OUT =           3.6825

          STORAGE:                                 STORAGE:
          --------                                 --------
      STORAGE CHANGE =   120172692.2929        STORAGE CHANGE =           3.6825

 PERCENT DISCREPANCY IS DIFFERENCE BETWEEN IN-OUT MINUS CHANGE IN STORAGE
 DIVIDED BY THE AVERAGE OF IN AND OUT TIMES 100

 PERCENT DISCREPANCY =          -0.00     PERCENT DISCREPANCY =           0.00






1
  VOLUMETRIC BUDGET FOR AGRICULTURAL FIELDS AT TIME STEP   30, STRESS PERIOD  38
  ------------------------------------------------------------------------------

     CUMULATIVE VOLUMES      L**3       RATES FOR THIS TIME STEP      L**3/T
     ------------------                 ------------------------

           IN:                                      IN:
           ---                                      ---
               AG WELLS  =  1193757312.0000                 AG WELLS  =           0.0000
      DIVERSION SEGMENTS =           0.0000        DIVERSION SEGMENTS =           0.0000
           GW IRRIGATION =           0.0000             GW IRRIGATION =           0.0000
           SW IRRIGATION =           0.0000             SW IRRIGATION =           0.0000
        SYSTEM LOSSES GW =           0.0000          SYSTEM LOSSES GW =           0.0000
        SYSTEM LOSSES SW =           0.0000          SYSTEM LOSSES SW =           0.0000

                TOTAL IN =  1193757312.0000                  TOTAL IN =           0.0000

          OUT:                                     OUT:
          ----                                     ----
               AG WELLS  =           0.0000                 AG WELLS  =           0.0000
      DIVERSION SEGMENTS =           0.0000        DIVERSION SEGMENTS =           0.0000
           GW IRRIGATION =  1193757312.0000             GW IRRIGATION =           0.0000
           SW IRRIGATION =           0.0000             SW IRRIGATION =           0.0000
        SYSTEM LOSSES GW =           0.0000          SYSTEM LOSSES GW =           0.0000
        SYSTEM LOSSES SW =           0.0000          SYSTEM LOSSES SW =           0.0000

               TOTAL OUT =  1193757312.0000                 TOTAL OUT =           0.0000

                IN - OUT =           0.0000                  IN - OUT =           0.0000

     PERCENT DISCREPANCY =           0.00         PERCENT DISCREPANCY =           0.00



1
  VOLUMETRIC BUDGET FOR ENTIRE MODEL AT END OF TIME STEP   30, STRESS PERIOD  38
  ------------------------------------------------------------------------------

     CUMULATIVE VOLUMES      L**3       RATES FOR THIS TIME STEP      L**3/T
     ------------------                 ------------------------

           IN:                                      IN:
           ---                                      ---
             STORAGE     =  1653971200.0000               STORAGE     =           6.0568
       CONSTANT HEAD     =           0.0000         CONSTANT HEAD     =           0.0000
     HEAD DEP BOUNDS     =    27843140.0000       HEAD DEP BOUNDS     =           0.2875
      STREAM LEAKAGE     =  1192097536.0000        STREAM LEAKAGE     =          12.1571
        UZF RECHARGE     =      884424.5000          UZF RECHARGE     =           0.0000
               GW ET     =           0.0000                 GW ET     =           0.0000
     SURFACE LEAKAGE     =           0.0000       SURFACE LEAKAGE     =           0.0000
           AG WELLS      =           0.0000             AG WELLS      =           0.0000

                TOTAL IN =  2874796288.0000                  TOTAL IN =          18.5013

          OUT:                                     OUT:
          ----                                     ----
             STORAGE     =   636482560.0000               STORAGE     =           8.5373
       CONSTANT HEAD     =           0.0000         CONSTANT HEAD     =           0.0000
     HEAD DEP BOUNDS     =    28473832.0000       HEAD DEP BOUNDS     =           0.2890
      STREAM LEAKAGE     =   998740224.0000        STREAM LEAKAGE     =           9.6750
        UZF RECHARGE     =           0.0000          UZF RECHARGE     =           0.0000
               GW ET     =    17343536.0000                 GW ET     =           0.0000
     SURFACE LEAKAGE     =           0.0000       SURFACE LEAKAGE     =           0.0000
           AG WELLS      =  1193757312.0000             AG WELLS      =           0.0000

               TOTAL OUT =  2874797568.0000                 TOTAL OUT =          18.5013

                IN - OUT =       -1280.0000                  IN - OUT =       1.3351E-05

     PERCENT DISCREPANCY =          -0.00         PERCENT DISCREPANCY =           0.00






         TIME SUMMARY AT END OF TIME STEP   30 IN STRESS PERIOD   38
                    SECONDS     MINUTES      HOURS       DAYS        YEARS
                    -----------------------------------------------------------
   TIME STEP LENGTH  87667.      1461.1      24.352      1.0147     2.77799E-03
 STRESS PERIOD TIME 2.63000E+06  43833.      730.56      30.440     8.33397E-02
         TOTAL TIME 9.73959E+07 1.62326E+06  27054.      1127.3      3.0863    
1
1
                            STRESS PERIOD NO.   39, LENGTH =   2630000.    
                            -----------------------------------------------

                              NUMBER OF TIME STEPS =    30

                               MULTIPLIER FOR DELT =     1.000

                            INITIAL TIME STEP SIZE =   87666.66    

 REUSING NON-PARAMETER GHB CELLS FROM LAST STRESS PERIOD

      2 GHB CELLS

 REUSING STREAM SEGMENT DATA FROM LAST STRESS PERIOD



            AREAL INFILTRATION RATE
 READING ON UNIT   19 WITH FORMAT: (10F4.0)            

            1           2           3           4           5           6           7           8           9          10
 ........................................................................................................................
   1   1.2000E-09   0.000       0.000       0.000       0.000       0.000       0.000       0.000       0.000       0.000    
   2   2.1000E-09  2.0000E-09  8.0000E-10  8.5000E-09   0.000       0.000       0.000       0.000       0.000       0.000    
   3   5.0000E-10  1.1000E-09  8.8000E-09  5.5000E-09   0.000       0.000       0.000       0.000       0.000       0.000    
   4   8.5000E-09  1.1000E-09  1.1000E-09  1.1000E-09  2.0000E-09   0.000       0.000       0.000       0.000       0.000    
   5   8.5000E-09  1.1000E-09  1.1000E-09  1.1000E-09  1.1000E-09   0.000       0.000       0.000       0.000       0.000    
   6   8.5000E-09  5.2000E-09  2.1000E-09  1.1000E-09  1.5000E-09   0.000       0.000       0.000       0.000       0.000    
   7   8.5000E-09  5.2000E-09  2.1000E-09  1.2000E-09  2.0000E-09   0.000       0.000       0.000       0.000       0.000    
   8   5.0000E-10  5.2000E-09  2.1000E-09  1.2000E-09  5.0000E-09   0.000       0.000       0.000       0.000       0.000    
   9   5.0000E-10  5.2000E-09  2.1000E-09  1.2000E-09  5.0000E-09   0.000       0.000       0.000       0.000       0.000    
  10   5.0000E-10  5.2000E-09  2.1000E-09  1.2000E-09  5.8000E-09   0.000       0.000       0.000       0.000       0.000    
  11   1.0000E-10  1.1000E-09  1.1000E-09  1.2000E-09  5.0000E-09   0.000       0.000       0.000       0.000       0.000    
  12   1.1000E-09  1.1000E-09  1.1000E-09  1.1000E-09  2.0000E-09   0.000       0.000       0.000       0.000       0.000    
  13   1.1000E-09  2.2000E-09  2.2000E-09  2.1000E-09  1.0000E-09   0.000       0.000       0.000       0.000       0.000    
  14   2.0000E-10  5.5000E-09  5.5000E-09  5.2000E-09  1.0000E-09   0.000       0.000       0.000       0.000       0.000    
  15    0.000      8.8000E-09  8.8000E-09   0.000       0.000       0.000       0.000       0.000       0.000       0.000    

                  ET RATE =  5.000000E-10

 USING ET EXTINCTION DEPTH FROM PREVIOUS STRESS PERIOD. CURRENT PERIOD IS:      39

 USING EXTINCTION WATER CONTENT FROM PREVIOUS STRESS PERIOD. CURRENT PERIOD IS:      39

 USING AIR ENTRY PRESSURE FROM PREVIOUS STRESS PERIOD. CURRENT PERIOD IS:      39

 USING ROOT PRESSURE HEAD FROM PREVIOUS STRESS PERIOD. CURRENT PERIOD IS:      39

 USING ROOT ACTIVITY FROM PREVIOUS STRESS PERIOD. CURRENT PERIOD IS:      39

 PROCESSING AG STRESS PERIOD DATA

 READING AG STRESS PERIOD DATA

 READING IRRIGATION WELL

 END PROCESSING AG STRESS PERIOD DATA OPTIONS
 
 SOLVING FOR HEAD 
                                                   Max.-Head-Change                         Max.-Flux-Residual
  Residual-Control   Outer-Iter.   Inner-Iter.     Column Row Layer    Maximum-Head-Change  Column Row Layer    Maximum-Flux-Residual          L2-NORM 
          0                 1           2             4    7     1       0.1792834234E-01       4    7    1         0.9402098138E+00      0.2322895141E+01
          0                 2           2             4    7     1      -0.1743945154E-02       4    7    1        -0.9402140578E-01      0.2322888779E+00
          0                 3           1             4    7     1       0.1187561417E-03       4    7    1         0.6581497234E-02      0.1626013984E-01
          0                 4           1             4    7     1      -0.4725422028E-05       4    7    1        -0.2691836446E-03      0.6650324767E-03

    ------------------------------------------------
       NWT REQUIRED            4 OUTER ITERATIONS 
       AND A TOTAL OF          6 INNER ITERATIONS.
    ------------------------------------------------

 NO OUTPUT CONTROL FOR STRESS PERIOD   39   TIME STEP    1
 
 SOLVING FOR HEAD 
                                                   Max.-Head-Change                         Max.-Flux-Residual
  Residual-Control   Outer-Iter.   Inner-Iter.     Column Row Layer    Maximum-Head-Change  Column Row Layer    Maximum-Flux-Residual          L2-NORM 
          0                 1           2             4    7     1       0.1776354764E-01       4    7    1         0.9315238664E+00      0.2306648623E+01
          0                 2           2             4    7     1      -0.1727914991E-02       4    7    1        -0.9315280219E-01      0.2306642397E+00
          0                 3           1             4    7     1       0.1176645484E-03       4    7    1         0.6520695049E-02      0.1614642376E-01
          0                 4           1             4    7     1      -0.4681986341E-05       4    7    1        -0.2666968230E-03      0.6603941977E-03

    ------------------------------------------------
       NWT REQUIRED            4 OUTER ITERATIONS 
       AND A TOTAL OF          6 INNER ITERATIONS.
    ------------------------------------------------

 NO OUTPUT CONTROL FOR STRESS PERIOD   39   TIME STEP    2
 
 SOLVING FOR HEAD 
                                                   Max.-Head-Change                         Max.-Flux-Residual
  Residual-Control   Outer-Iter.   Inner-Iter.     Column Row Layer    Maximum-Head-Change  Column Row Layer    Maximum-Flux-Residual          L2-NORM 
          0                 1           2             4    7     1       0.1760101699E-01       4    7    1         0.9229575226E+00      0.2290610366E+01
          0                 2           2             4    7     1      -0.1712105062E-02       4    7    1        -0.9229615918E-01      0.2290603896E+00
          0                 3           1             4    7     1       0.1165879516E-03       4    7    1         0.6460730079E-02      0.1603413653E-01
          0                 4           1             4    7     1      -0.4639147361E-05       4    7    1        -0.2642442369E-03      0.6557951712E-03

    ------------------------------------------------
       NWT REQUIRED            4 OUTER ITERATIONS 
       AND A TOTAL OF          6 INNER ITERATIONS.
    ------------------------------------------------

 NO OUTPUT CONTROL FOR STRESS PERIOD   39   TIME STEP    3
 
 SOLVING FOR HEAD 
                                                   Max.-Head-Change                         Max.-Flux-Residual
  Residual-Control   Outer-Iter.   Inner-Iter.     Column Row Layer    Maximum-Head-Change  Column Row Layer    Maximum-Flux-Residual          L2-NORM 
          0                 1           2             4    7     1       0.1744084064E-01       4    7    1         0.9145158781E+00      0.2274781523E+01
          0                 2           2             4    7     1      -0.1697920556E-02       4    7    1        -0.9155090579E-01      0.2275049562E+00
          0                 3           1             4    7     1       0.1156220364E-03       4    7    1         0.6408562102E-02      0.1592525380E-01
          0                 4           1             4    7     1      -0.4600712818E-05       4    7    1        -0.2621105841E-03      0.6513380929E-03

    ------------------------------------------------
       NWT REQUIRED            4 OUTER ITERATIONS 
       AND A TOTAL OF          6 INNER ITERATIONS.
    ------------------------------------------------

 NO OUTPUT CONTROL FOR STRESS PERIOD   39   TIME STEP    4
 
 SOLVING FOR HEAD 
                                                   Max.-Head-Change                         Max.-Flux-Residual
  Residual-Control   Outer-Iter.   Inner-Iter.     Column Row Layer    Maximum-Head-Change  Column Row Layer    Maximum-Flux-Residual          L2-NORM 
          0                 1           2             4    7     1       0.1727809887E-01       4    7    1         0.9061218683E+00      0.2259130434E+01
          0                 2           2             4    7     1      -0.1680694069E-02       4    7    1        -0.9061260374E-01      0.2259123961E+00
          0                 3           1             4    7     1       0.1144489783E-03       4    7    1         0.6342881068E-02      0.1581378301E-01
          0                 4           1             4    7     1      -0.4554035829E-05       4    7    1        -0.2594242094E-03      0.6467754761E-03

    ------------------------------------------------
       NWT REQUIRED            4 OUTER ITERATIONS 
       AND A TOTAL OF          6 INNER ITERATIONS.
    ------------------------------------------------

 NO OUTPUT CONTROL FOR STRESS PERIOD   39   TIME STEP    5
 
 SOLVING FOR HEAD 
                                                   Max.-Head-Change                         Max.-Flux-Residual
  Residual-Control   Outer-Iter.   Inner-Iter.     Column Row Layer    Maximum-Head-Change  Column Row Layer    Maximum-Flux-Residual          L2-NORM 
          0                 1           2             4    7     1       0.1711919762E-01       4    7    1         0.8977363731E+00      0.2243777559E+01
          0                 2           2             4    7     1      -0.1665237168E-02       4    7    1        -0.8977404458E-01      0.2243838702E+00
          0                 3           1             4    7     1       0.1133964221E-03       4    7    1         0.6284181997E-02      0.1571093203E-01
          0                 4           1             4    7     1      -0.4512153099E-05       4    7    1        -0.2570234089E-03      0.6445429206E-03

    ------------------------------------------------
       NWT REQUIRED            4 OUTER ITERATIONS 
       AND A TOTAL OF          6 INNER ITERATIONS.
    ------------------------------------------------

 NO OUTPUT CONTROL FOR STRESS PERIOD   39   TIME STEP    6
 
 SOLVING FOR HEAD 
                                                   Max.-Head-Change                         Max.-Flux-Residual
  Residual-Control   Outer-Iter.   Inner-Iter.     Column Row Layer    Maximum-Head-Change  Column Row Layer    Maximum-Flux-Residual          L2-NORM 
          0                 1           2             4    7     1       0.1696277441E-01       4    7    1         0.8894829056E+00      0.2228528379E+01
          0                 2           2             4    7     1      -0.1650021316E-02       4    7    1        -0.8894868850E-01      0.2228620311E+00
          0                 3           1             4    7     1       0.1123602803E-03       4    7    1         0.6226407120E-02      0.1560593860E-01
          0                 4           1             4    7     1      -0.4470924523E-05       4    7    1        -0.2546604264E-03      0.6410763305E-03

    ------------------------------------------------
       NWT REQUIRED            4 OUTER ITERATIONS 
       AND A TOTAL OF          6 INNER ITERATIONS.
    ------------------------------------------------

 NO OUTPUT CONTROL FOR STRESS PERIOD   39   TIME STEP    7
 
 SOLVING FOR HEAD 
                                                   Max.-Head-Change                         Max.-Flux-Residual
  Residual-Control   Outer-Iter.   Inner-Iter.     Column Row Layer    Maximum-Head-Change  Column Row Layer    Maximum-Flux-Residual          L2-NORM 
          0                 1           2             4    7     1       0.1680876823E-01       4    7    1         0.8813579208E+00      0.2213368353E+01
          0                 2           2             4    7     1      -0.1635040579E-02       4    7    1        -0.8813618095E-01      0.2213430270E+00
          0                 3           1             4    7     1       0.1113401489E-03       4    7    1         0.6169531650E-02      0.1549806687E-01
          0                 4           1             4    7     1      -0.4430332719E-05       4    7    1        -0.2523342209E-03      0.6358381450E-03

    ------------------------------------------------
       NWT REQUIRED            4 OUTER ITERATIONS 
       AND A TOTAL OF          6 INNER ITERATIONS.
    ------------------------------------------------

 NO OUTPUT CONTROL FOR STRESS PERIOD   39   TIME STEP    8
 
 SOLVING FOR HEAD 
                                                   Max.-Head-Change                         Max.-Flux-Residual
  Residual-Control   Outer-Iter.   Inner-Iter.     Column Row Layer    Maximum-Head-Change  Column Row Layer    Maximum-Flux-Residual          L2-NORM 
          0                 1           2             4    7     1       0.1665698478E-01       4    7    1         0.8733509416E+00      0.2198410361E+01
          0                 2           2             4    7     1      -0.1620276058E-02       4    7    1        -0.8733547422E-01      0.2198450739E+00
          0                 3           1             4    7     1       0.1103347408E-03       4    7    1         0.6113482243E-02      0.1539207715E-01
          0                 4           1             4    7     1      -0.4390325993E-05       4    7    1        -0.2500417775E-03      0.6308787577E-03

    ------------------------------------------------
       NWT REQUIRED            4 OUTER ITERATIONS 
       AND A TOTAL OF          6 INNER ITERATIONS.
    ------------------------------------------------

 NO OUTPUT CONTROL FOR STRESS PERIOD   39   TIME STEP    9
 
 SOLVING FOR HEAD 
                                                   Max.-Head-Change                         Max.-Flux-Residual
  Residual-Control   Outer-Iter.   Inner-Iter.     Column Row Layer    Maximum-Head-Change  Column Row Layer    Maximum-Flux-Residual          L2-NORM 
          0                 1           2             4    7     1       0.1650764181E-01       4    7    1         0.8654738347E+00      0.2183652190E+01
          0                 2           2             4    7     1      -0.1605748933E-02       4    7    1        -0.8654775499E-01      0.2183676906E+00
          0                 3           1             4    7     1       0.1093454987E-03       4    7    1         0.6058341954E-02      0.1528780934E-01
          0                 4           1             4    7     1      -0.4350963176E-05       4    7    1        -0.2477865364E-03      0.6262907689E-03

    ------------------------------------------------
       NWT REQUIRED            4 OUTER ITERATIONS 
       AND A TOTAL OF          6 INNER ITERATIONS.
    ------------------------------------------------

 NO OUTPUT CONTROL FOR STRESS PERIOD   39   TIME STEP   10
 
 SOLVING FOR HEAD 
                                                   Max.-Head-Change                         Max.-Flux-Residual
  Residual-Control   Outer-Iter.   Inner-Iter.     Column Row Layer    Maximum-Head-Change  Column Row Layer    Maximum-Flux-Residual          L2-NORM 
          0                 1           2             4    7     1       0.1636027528E-01       4    7    1         0.8577013218E+00      0.2169088638E+01
          0                 2           2             4    7     1      -0.1591414065E-02       4    7    1        -0.8577049538E-01      0.2169102386E+00
          0                 3           1             4    7     1       0.1083693487E-03       4    7    1         0.6003933837E-02      0.1518517568E-01
          0                 4           1             4    7     1      -0.4312121311E-05       4    7    1        -0.2455612521E-03      0.6217055366E-03

    ------------------------------------------------
       NWT REQUIRED            4 OUTER ITERATIONS 
       AND A TOTAL OF          6 INNER ITERATIONS.
    ------------------------------------------------

 NO OUTPUT CONTROL FOR STRESS PERIOD   39   TIME STEP   11
 
 SOLVING FOR HEAD 
                                                   Max.-Head-Change                         Max.-Flux-Residual
  Residual-Control   Outer-Iter.   Inner-Iter.     Column Row Layer    Maximum-Head-Change  Column Row Layer    Maximum-Flux-Residual          L2-NORM 
          0                 1           2             4    7     1       0.1621524496E-01       4    7    1         0.8500532258E+00      0.2154713946E+01
          0                 2           2             4    7     1      -0.1577306450E-02       4    7    1        -0.8500567773E-01      0.2154720192E+00
          0                 3           1             4    7     1       0.1074086733E-03       4    7    1         0.5950396635E-02      0.1508402245E-01
          0                 4           1             4    7     1      -0.4273895148E-05       4    7    1        -0.2433715806E-03      0.6174106413E-03

    ------------------------------------------------
       NWT REQUIRED            4 OUTER ITERATIONS 
       AND A TOTAL OF          6 INNER ITERATIONS.
    ------------------------------------------------

 NO OUTPUT CONTROL FOR STRESS PERIOD   39   TIME STEP   12
 
 SOLVING FOR HEAD 
                                                   Max.-Head-Change                         Max.-Flux-Residual
  Residual-Control   Outer-Iter.   Inner-Iter.     Column Row Layer    Maximum-Head-Change  Column Row Layer    Maximum-Flux-Residual          L2-NORM 
          0                 1           2             4    7     1       0.1607235768E-01       4    7    1         0.8425189452E+00      0.2140519495E+01
          0                 2           2             4    7     1      -0.1563407298E-02       4    7    1        -0.8425224184E-01      0.2140520524E+00
          0                 3           1             4    7     1       0.1064621942E-03       4    7    1         0.5897656197E-02      0.1498429808E-01
          0                 4           1             4    7     1      -0.4236234032E-05       4    7    1        -0.2412144954E-03      0.6131606850E-03

    ------------------------------------------------
       NWT REQUIRED            4 OUTER ITERATIONS 
       AND A TOTAL OF          6 INNER ITERATIONS.
    ------------------------------------------------

 NO OUTPUT CONTROL FOR STRESS PERIOD   39   TIME STEP   13
 
 SOLVING FOR HEAD 
                                                   Max.-Head-Change                         Max.-Flux-Residual
  Residual-Control   Outer-Iter.   Inner-Iter.     Column Row Layer    Maximum-Head-Change  Column Row Layer    Maximum-Flux-Residual          L2-NORM 
          0                 1           2             4    7     1       0.1593142836E-01       4    7    1         0.8350884627E+00      0.2126503536E+01
          0                 2           2             4    7     1      -0.1549698606E-02       4    7    1        -0.8350918596E-01      0.2126501550E+00
          0                 3           1             4    7     1       0.1055286839E-03       4    7    1         0.5845642328E-02      0.1488591222E-01
          0                 4           1             4    7     1      -0.4199088572E-05       4    7    1        -0.2390871164E-03      0.6090337413E-03

    ------------------------------------------------
       NWT REQUIRED            4 OUTER ITERATIONS 
       AND A TOTAL OF          6 INNER ITERATIONS.
    ------------------------------------------------

 NO OUTPUT CONTROL FOR STRESS PERIOD   39   TIME STEP   14
 
 SOLVING FOR HEAD 
                                                   Max.-Head-Change                         Max.-Flux-Residual
  Residual-Control   Outer-Iter.   Inner-Iter.     Column Row Layer    Maximum-Head-Change  Column Row Layer    Maximum-Flux-Residual          L2-NORM 
          0                 1           2             4    7     1       0.1579254978E-01       4    7    1         0.8277668123E+00      0.2112660142E+01
          0                 2           2             4    7     1      -0.1536189397E-02       4    7    1        -0.8277701352E-01      0.2112656167E+00
          0                 3           1             4    7     1       0.1046087580E-03       4    7    1         0.5794390303E-02      0.1478882008E-01
          0                 4           1             4    7     1      -0.4162483982E-05       4    7    1        -0.2369909150E-03      0.6049736537E-03

    ------------------------------------------------
       NWT REQUIRED            4 OUTER ITERATIONS 
       AND A TOTAL OF          6 INNER ITERATIONS.
    ------------------------------------------------

 NO OUTPUT CONTROL FOR STRESS PERIOD   39   TIME STEP   15
 
 SOLVING FOR HEAD 
                                                   Max.-Head-Change                         Max.-Flux-Residual
  Residual-Control   Outer-Iter.   Inner-Iter.     Column Row Layer    Maximum-Head-Change  Column Row Layer    Maximum-Flux-Residual          L2-NORM 
          0                 1           2             4    7     1       0.1565580962E-01       4    7    1         0.8205588048E+00      0.2098996577E+01
          0                 2           2             4    7     1      -0.1522888202E-02       4    7    1        -0.8205620559E-01      0.2098991410E+00
          0                 3           1             4    7     1       0.1037029971E-03       4    7    1         0.5743933797E-02      0.1469305782E-01
          0                 4           1             4    7     1      -0.4126442941E-05       4    7    1        -0.2349272472E-03      0.6010090801E-03

    ------------------------------------------------
       NWT REQUIRED            4 OUTER ITERATIONS 
       AND A TOTAL OF          6 INNER ITERATIONS.
    ------------------------------------------------

 NO OUTPUT CONTROL FOR STRESS PERIOD   39   TIME STEP   16
 
 SOLVING FOR HEAD 
                                                   Max.-Head-Change                         Max.-Flux-Residual
  Residual-Control   Outer-Iter.   Inner-Iter.     Column Row Layer    Maximum-Head-Change  Column Row Layer    Maximum-Flux-Residual          L2-NORM 
          0                 1           2             4    7     1       0.1552088547E-01       4    7    1         0.8134470405E+00      0.2085491165E+01
          0                 2           2             4    7     1      -0.1509763657E-02       4    7    1        -0.8134502216E-01      0.2085486141E+00
          0                 3           1             4    7     1       0.1028092651E-03       4    7    1         0.5694151004E-02      0.1459844645E-01
          0                 4           1             4    7     1      -0.4090880371E-05       4    7    1        -0.2328911144E-03      0.5971074558E-03

    ------------------------------------------------
       NWT REQUIRED            4 OUTER ITERATIONS 
       AND A TOTAL OF          6 INNER ITERATIONS.
    ------------------------------------------------

 NO OUTPUT CONTROL FOR STRESS PERIOD   39   TIME STEP   17
 
 SOLVING FOR HEAD 
                                                   Max.-Head-Change                         Max.-Flux-Residual
  Residual-Control   Outer-Iter.   Inner-Iter.     Column Row Layer    Maximum-Head-Change  Column Row Layer    Maximum-Flux-Residual          L2-NORM 
          0                 1           2             4    7     1       0.1538787478E-01       4    7    1         0.8064367486E+00      0.2072153330E+01
          0                 2           2             4    7     1      -0.1496825243E-02       4    7    1        -0.8064398615E-01      0.2072148486E+00
          0                 3           1             4    7     1       0.1019282079E-03       4    7    1         0.5645078525E-02      0.1450505792E-01
          0                 4           1             4    7     1      -0.4055822290E-05       4    7    1        -0.2308840469E-03      0.5932708074E-03

    ------------------------------------------------
       NWT REQUIRED            4 OUTER ITERATIONS 
       AND A TOTAL OF          6 INNER ITERATIONS.
    ------------------------------------------------

 NO OUTPUT CONTROL FOR STRESS PERIOD   39   TIME STEP   18
 
 SOLVING FOR HEAD 
                                                   Max.-Head-Change                         Max.-Flux-Residual
  Residual-Control   Outer-Iter.   Inner-Iter.     Column Row Layer    Maximum-Head-Change  Column Row Layer    Maximum-Flux-Residual          L2-NORM 
          0                 1           2             4    7     1       0.1525673351E-01       4    7    1         0.7995256667E+00      0.2058976222E+01
          0                 2           2             4    7     1      -0.1484068675E-02       4    7    1        -0.7995287133E-01      0.2058972063E+00
          0                 3           1             4    7     1       0.1010595340E-03       4    7    1         0.5596700532E-02      0.1441275600E-01
          0                 4           1             4    7     1      -0.4021256954E-05       4    7    1        -0.2289053909E-03      0.5894838643E-03

    ------------------------------------------------
       NWT REQUIRED            4 OUTER ITERATIONS 
       AND A TOTAL OF          6 INNER ITERATIONS.
    ------------------------------------------------

 NO OUTPUT CONTROL FOR STRESS PERIOD   39   TIME STEP   19
 
 SOLVING FOR HEAD 
                                                   Max.-Head-Change                         Max.-Flux-Residual
  Residual-Control   Outer-Iter.   Inner-Iter.     Column Row Layer    Maximum-Head-Change  Column Row Layer    Maximum-Flux-Residual          L2-NORM 
          0                 1           2             4    7     1       0.1512742125E-01       4    7    1         0.7927115116E+00      0.2045957579E+01
          0                 2           2             4    7     1      -0.1471490023E-02       4    7    1        -0.7927144937E-01      0.2045954091E+00
          0                 3           1             4    7     1       0.1002029750E-03       4    7    1         0.5549001022E-02      0.1432162974E-01
          0                 4           1             4    7     1      -0.3987173428E-05       4    7    1        -0.2269544693E-03      0.5857542945E-03

    ------------------------------------------------
       NWT REQUIRED            4 OUTER ITERATIONS 
       AND A TOTAL OF          6 INNER ITERATIONS.
    ------------------------------------------------

 NO OUTPUT CONTROL FOR STRESS PERIOD   39   TIME STEP   20
 
 SOLVING FOR HEAD 
                                                   Max.-Head-Change                         Max.-Flux-Residual
  Residual-Control   Outer-Iter.   Inner-Iter.     Column Row Layer    Maximum-Head-Change  Column Row Layer    Maximum-Flux-Residual          L2-NORM 
          0                 1           2             4    7     1       0.1500003052E-01       4    7    1         0.7859995044E+00      0.2033097146E+01
          0                 2           2             4    7     1      -0.1459098286E-02       4    7    1        -0.7860024243E-01      0.2033094403E+00
          0                 3           1             4    7     1       0.9935914506E-04       4    7    1         0.5502016596E-02      0.1423160955E-01

    ------------------------------------------------
       NWT REQUIRED            3 OUTER ITERATIONS 
       AND A TOTAL OF          5 INNER ITERATIONS.
    ------------------------------------------------

 NO OUTPUT CONTROL FOR STRESS PERIOD   39   TIME STEP   21
 
 SOLVING FOR HEAD 
                                                   Max.-Head-Change                         Max.-Flux-Residual
  Residual-Control   Outer-Iter.   Inner-Iter.     Column Row Layer    Maximum-Head-Change  Column Row Layer    Maximum-Flux-Residual          L2-NORM 
          0                 1           2             4    7     1       0.1487420720E-01       4    7    1         0.7793700980E+00      0.2020387250E+01
          0                 2           2             4    7     1      -0.1446859017E-02       4    7    1        -0.7793729564E-01      0.2020385369E+00
          0                 3           1             4    7     1       0.9852569659E-04       4    7    1         0.5455610340E-02      0.1414263014E-01

    ------------------------------------------------
       NWT REQUIRED            3 OUTER ITERATIONS 
       AND A TOTAL OF          5 INNER ITERATIONS.
    ------------------------------------------------

 NO OUTPUT CONTROL FOR STRESS PERIOD   39   TIME STEP   22
 
 SOLVING FOR HEAD 
                                                   Max.-Head-Change                         Max.-Flux-Residual
  Residual-Control   Outer-Iter.   Inner-Iter.     Column Row Layer    Maximum-Head-Change  Column Row Layer    Maximum-Flux-Residual          L2-NORM 
          0                 1           2             4    7     1       0.1475022816E-01       4    7    1         0.7728390180E+00      0.2007825650E+01
          0                 2           2             4    7     1      -0.1434799149E-02       4    7    1        -0.7728418172E-01      0.2007824637E+00
          0                 3           1             4    7     1       0.9770446483E-04       4    7    1         0.5409892389E-02      0.1405471049E-01

    ------------------------------------------------
       NWT REQUIRED            3 OUTER ITERATIONS 
       AND A TOTAL OF          5 INNER ITERATIONS.
    ------------------------------------------------

 NO OUTPUT CONTROL FOR STRESS PERIOD   39   TIME STEP   23
 
 SOLVING FOR HEAD 
                                                   Max.-Head-Change                         Max.-Flux-Residual
  Residual-Control   Outer-Iter.   Inner-Iter.     Column Row Layer    Maximum-Head-Change  Column Row Layer    Maximum-Flux-Residual          L2-NORM 
          0                 1           2             4    7     1       0.1462778659E-01       4    7    1         0.7663889256E+00      0.1995412427E+01
          0                 2           2             4    7     1      -0.1422888837E-02       4    7    1        -0.7663916669E-01      0.1995412342E+00
          0                 3           1             4    7     1       0.9689341783E-04       4    7    1         0.5364741387E-02      0.1396784995E-01

    ------------------------------------------------
       NWT REQUIRED            3 OUTER ITERATIONS 
       AND A TOTAL OF          5 INNER ITERATIONS.
    ------------------------------------------------

 NO OUTPUT CONTROL FOR STRESS PERIOD   39   TIME STEP   24
 
 SOLVING FOR HEAD 
                                                   Max.-Head-Change                         Max.-Flux-Residual
  Residual-Control   Outer-Iter.   Inner-Iter.     Column Row Layer    Maximum-Head-Change  Column Row Layer    Maximum-Flux-Residual          L2-NORM 
          0                 1           2             4    7     1       0.1450712093E-01       4    7    1         0.7600331830E+00      0.1983142224E+01
          0                 2           2             4    7     1      -0.1411151275E-02       4    7    1        -0.7600358680E-01      0.1983143060E+00
          0                 3           1             4    7     1       0.9609413445E-04       4    7    1         0.5320250839E-02      0.1388198975E-01

    ------------------------------------------------
       NWT REQUIRED            3 OUTER ITERATIONS 
       AND A TOTAL OF          5 INNER ITERATIONS.
    ------------------------------------------------

 NO OUTPUT CONTROL FOR STRESS PERIOD   39   TIME STEP   25
 
 SOLVING FOR HEAD 
                                                   Max.-Head-Change                         Max.-Flux-Residual
  Residual-Control   Outer-Iter.   Inner-Iter.     Column Row Layer    Maximum-Head-Change  Column Row Layer    Maximum-Flux-Residual          L2-NORM 
          0                 1           2             4    7     1       0.1438819058E-01       4    7    1         0.7537695186E+00      0.1971023055E+01
          0                 2           2             4    7     1      -0.1399582514E-02       4    7    1        -0.7537721489E-01      0.1971024662E+00
          0                 3           1             4    7     1       0.9530634521E-04       4    7    1         0.5276404833E-02      0.1379717009E-01

    ------------------------------------------------
       NWT REQUIRED            3 OUTER ITERATIONS 
       AND A TOTAL OF          5 INNER ITERATIONS.
    ------------------------------------------------

 NO OUTPUT CONTROL FOR STRESS PERIOD   39   TIME STEP   26
 
 SOLVING FOR HEAD 
                                                   Max.-Head-Change                         Max.-Flux-Residual
  Residual-Control   Outer-Iter.   Inner-Iter.     Column Row Layer    Maximum-Head-Change  Column Row Layer    Maximum-Flux-Residual          L2-NORM 
          0                 1           2             4    7     1       0.1427068973E-01       4    7    1         0.7475811913E+00      0.1959040137E+01
          0                 2           2             4    7     1      -0.1388152806E-02       4    7    1        -0.7475837679E-01      0.1959042520E+00
          0                 3           1             4    7     1       0.9452802540E-04       4    7    1         0.5233086198E-02      0.1371329148E-01

    ------------------------------------------------
       NWT REQUIRED            3 OUTER ITERATIONS 
       AND A TOTAL OF          5 INNER ITERATIONS.
    ------------------------------------------------

 NO OUTPUT CONTROL FOR STRESS PERIOD   39   TIME STEP   27
 
 SOLVING FOR HEAD 
                                                   Max.-Head-Change                         Max.-Flux-Residual
  Residual-Control   Outer-Iter.   Inner-Iter.     Column Row Layer    Maximum-Head-Change  Column Row Layer    Maximum-Flux-Residual          L2-NORM 
          0                 1           2             4    7     1       0.1415485571E-01       4    7    1         0.7414816170E+00      0.1947194185E+01
          0                 2           2             4    7     1      -0.1376885237E-02       4    7    1        -0.7414841418E-01      0.1947197050E+00
          0                 3           1             4    7     1       0.9376074663E-04       4    7    1         0.5190388848E-02      0.1363039798E-01

    ------------------------------------------------
       NWT REQUIRED            3 OUTER ITERATIONS 
       AND A TOTAL OF          5 INNER ITERATIONS.
    ------------------------------------------------

 NO OUTPUT CONTROL FOR STRESS PERIOD   39   TIME STEP   28
 
 SOLVING FOR HEAD 
                                                   Max.-Head-Change                         Max.-Flux-Residual
  Residual-Control   Outer-Iter.   Inner-Iter.     Column Row Layer    Maximum-Head-Change  Column Row Layer    Maximum-Flux-Residual          L2-NORM 
          0                 1           2             4    7     1       0.1404038953E-01       4    7    1         0.7354538275E+00      0.1935484903E+01
          0                 2           2             4    7     1      -0.1365750724E-02       4    7    1        -0.7354563013E-01      0.1935488388E+00
          0                 3           1             4    7     1       0.9300252806E-04       4    7    1         0.5148193993E-02      0.1354843462E-01

    ------------------------------------------------
       NWT REQUIRED            3 OUTER ITERATIONS 
       AND A TOTAL OF          5 INNER ITERATIONS.
    ------------------------------------------------

 NO OUTPUT CONTROL FOR STRESS PERIOD   39   TIME STEP   29
 
 SOLVING FOR HEAD 
                                                   Max.-Head-Change                         Max.-Flux-Residual
  Residual-Control   Outer-Iter.   Inner-Iter.     Column Row Layer    Maximum-Head-Change  Column Row Layer    Maximum-Flux-Residual          L2-NORM 
          0                 1           2             4    7     1       0.1392766529E-01       4    7    1         0.7295189138E+00      0.1923914119E+01
          0                 2           2             4    7     1      -0.1354785656E-02       4    7    1        -0.7295213385E-01      0.1923918072E+00
          0                 3           1             4    7     1       0.9225584815E-04       4    7    1         0.5106649275E-02      0.1346746883E-01

    ------------------------------------------------
       NWT REQUIRED            3 OUTER ITERATIONS 
       AND A TOTAL OF          5 INNER ITERATIONS.
    ------------------------------------------------

 NO OUTPUT CONTROL FOR STRESS PERIOD   39   TIME STEP   30



 STREAM LISTING     PERIOD     39   STEP       30

 LAYER ROW COL. STREAM  RCH.  FLOW INTO     FLOW TO   FLOW OUT OF   OVRLND.     DIRECT     STREAM       STREAM     STREAM     STREAM   STREAMBED  STREAMBED
                SEG.NO.  NO.  STRM. RCH.    AQUIFER    STRM. RCH.    RUNOFF     PRECIP       ET          HEAD       DEPTH      WIDTH   CONDCTNC.   GRADIENT

   1    1    1     1     1    1.9000E+01  2.1427E-01   1.8786E+01  0.000E+00  0.000E+00  0.000E+00  1.09413E+03  1.082E+00  1.166E+01  5.249E-02  1.361E+00
   1    2    2     1     2    1.8786E+01  3.3054E-01   1.8455E+01  0.000E+00  0.000E+00  0.000E+00  1.08914E+03  1.077E+00  1.158E+01  8.107E-02  1.359E+00
   1    3    3     1     3    1.8455E+01  2.8064E-01   1.8175E+01  0.000E+00  0.000E+00  0.000E+00  1.08349E+03  1.072E+00  1.149E+01  6.892E-02  1.357E+00
   1    3    4     1     4    1.8175E+01  2.5740E-01   1.7917E+01  0.000E+00  0.000E+00  0.000E+00  1.07848E+03  1.068E+00  1.140E+01  6.328E-02  1.356E+00
   1    4    5     2     1    1.5917E+01  3.0542E-01   1.5612E+01  0.000E+00  0.000E+00  0.000E+00  1.07285E+03  9.157E-01  1.200E+01  7.800E-02  1.305E+00
   1    5    6     2     2    1.5612E+01  2.3438E-01   1.5377E+01  0.000E+00  0.000E+00  0.000E+00  1.06742E+03  9.063E-01  1.200E+01  6.000E-02  1.302E+00
   1    6    6     2     3    1.5377E+01  2.3388E-01   1.5143E+01  0.000E+00  0.000E+00  0.000E+00  1.06269E+03  8.980E-01  1.200E+01  6.000E-02  1.299E+00
   1    7    6     2     4    1.5143E+01  2.3338E-01   1.4910E+01  0.000E+00  0.000E+00  0.000E+00  1.05797E+03  8.897E-01  1.200E+01  6.000E-02  1.297E+00
   1    8    6     2     5    1.4910E+01  2.3289E-01   1.4677E+01  0.000E+00  0.000E+00  0.000E+00  1.05324E+03  8.814E-01  1.200E+01  6.000E-02  1.294E+00
   1    3    5     3     1    2.0000E+00  2.8252E-01   1.7175E+00  0.000E+00  0.000E+00  0.000E+00  1.07555E+03  1.909E+00  9.636E+00  7.227E-02  1.955E+00
   1    3    6     3     2    1.7175E+00  2.4905E-01   1.4684E+00  0.000E+00  0.000E+00  0.000E+00  1.07264E+03  1.727E+00  8.909E+00  6.682E-02  1.864E+00
   1    3    7     3     3    1.4684E+00  1.9718E-01   1.2712E+00  0.000E+00  0.000E+00  0.000E+00  1.06987E+03  1.555E+00  8.218E+00  5.547E-02  1.777E+00
   1    4    8     3     4    1.2712E+00  2.2567E-01   1.0456E+00  0.000E+00  0.000E+00  0.000E+00  1.06682E+03  1.364E+00  7.455E+00  6.709E-02  1.682E+00
   1    5    8     3     5    1.0456E+00  1.5790E-01   8.8768E-01  0.000E+00  0.000E+00  0.000E+00  1.06362E+03  1.164E+00  6.655E+00  4.991E-02  1.582E+00
   1    6    8     3     6    8.8768E-01  5.5980E-02   8.3170E-01  0.000E+00  0.000E+00  0.000E+00  1.06158E+03  1.036E+00  6.145E+00  1.844E-02  1.518E+00
   1    5   10     4     1    1.0000E+01  9.0919E-02   9.9091E+00  0.000E+00  0.000E+00  0.000E+00  1.07836E+03  6.368E-01  1.000E+01  2.500E-02  1.212E+00
   1    5    9     4     2    9.9091E+00  1.8158E-01   9.7275E+00  0.000E+00  0.000E+00  0.000E+00  1.07154E+03  6.315E-01  1.000E+01  5.000E-02  1.211E+00
   1    6    8     4     3    9.7275E+00  1.2689E-01   9.6006E+00  0.000E+00  0.000E+00  0.000E+00  1.06381E+03  6.256E-01  1.000E+01  3.500E-02  1.209E+00
   1    6    8     5     1    1.0432E+01  2.2686E-01   1.0205E+01  0.000E+00  0.000E+00  0.000E+00  1.05868E+03  6.790E-01  1.542E+01  6.166E-02  1.226E+00
   1    7    7     5     2    1.0205E+01  2.7894E-01   9.9265E+00  0.000E+00  0.000E+00  0.000E+00  1.05417E+03  6.732E-01  1.519E+01  7.594E-02  1.224E+00
   1    8    7     5     3    9.9265E+00  1.9221E-01   9.7343E+00  0.000E+00  0.000E+00  0.000E+00  1.04992E+03  6.676E-01  1.497E+01  5.241E-02  1.223E+00
   1    8    6     5     4    9.7343E+00  1.3577E-01   9.5985E+00  0.000E+00  0.000E+00  0.000E+00  1.04691E+03  6.637E-01  1.482E+01  3.706E-02  1.221E+00
   1    9    6     6     1    2.4276E+01  2.5176E-01   2.4024E+01  0.000E+00  0.000E+00  0.000E+00  1.04392E+03  1.196E+00  1.200E+01  6.000E-02  1.399E+00
   1   10    7     6     2    2.4024E+01  2.5131E-01   2.3773E+01  0.000E+00  0.000E+00  0.000E+00  1.03937E+03  1.188E+00  1.200E+01  6.000E-02  1.396E+00
   1   11    7     6     3    2.3773E+01  2.5086E-01   2.3522E+01  0.000E+00  0.000E+00  0.000E+00  1.03482E+03  1.181E+00  1.200E+01  6.000E-02  1.394E+00
   1   12    7     6     4    2.3522E+01  2.5041E-01   2.3271E+01  0.000E+00  0.000E+00  0.000E+00  1.03026E+03  1.173E+00  1.200E+01  6.000E-02  1.391E+00
   1   13    7     6     5    2.3271E+01  9.3881E-03   2.3262E+01  0.000E+00  0.000E+00  0.000E+00  1.02708E+03  1.170E+00  1.200E+01  2.400E-02  1.304E-01
   1   14    9     7     1    1.5000E+02  1.3629E+00   1.4864E+02  0.000E+00  0.000E+00  0.000E+00  1.03987E+03  2.288E+00  5.529E+01  5.593E-01  8.122E-01
   1   13    8     7     2    1.4864E+02  1.9458E+00   1.4669E+02  0.000E+00  0.000E+00  0.000E+00  1.03478E+03  2.279E+00  5.525E+01  6.148E-01  1.055E+00
   1   13    7     7     3    1.4669E+02  1.6758E+00   1.4502E+02  0.000E+00  0.000E+00  0.000E+00  1.02969E+03  2.269E+00  5.521E+01  5.584E-01  1.000E+00
   1   13    6     8     1    1.6828E+02  1.1168E+00   1.6716E+02  0.000E+00  0.000E+00  0.000E+00  1.02481E+03  2.937E+00  4.259E+01  4.340E-01  8.577E-01
   1   13    5     8     2    1.6716E+02  3.6076E-01   1.6680E+02  0.000E+00  0.000E+00  0.000E+00  1.01856E+03  2.932E+00  4.252E+01  4.333E-01  2.775E-01
   1   13    4     8     3    1.6680E+02 -1.8084E+00   1.6861E+02  0.000E+00  0.000E+00  0.000E+00  1.01231E+03  2.937E+00  4.259E+01  4.340E+00 -1.389E-01
   1   13    3     8     4    1.6861E+02 -3.3748E+00   1.7198E+02  0.000E+00  0.000E+00  0.000E+00  1.00608E+03  2.954E+00  4.283E+01  4.365E+00 -2.577E-01
   1   13    2     8     5    1.7198E+02 -2.5073E+00   1.7449E+02  0.000E+00  0.000E+00  0.000E+00  9.99848E+02  2.973E+00  4.311E+01  4.393E+00 -1.902E-01
   1   13    1     8     6    1.7449E+02 -1.9643E+00   1.7645E+02  0.000E+00  0.000E+00  0.000E+00  9.94862E+02  2.987E+00  4.332E+01  2.649E+00 -2.472E-01





UNSATURATED ZONE PACKAGE VOLUMETRIC BUDGET FOR  TIME STEP    30 STRESS PERIOD   39
  ------------------------------------------------------------------------------



     CUMULATIVE VOLUMES      L**3       RATES FOR THIS TIME STEP      L**3/T
     ------------------                 ------------------------

           IN:                                      IN:
           ---                                      ---
        INFILTRATION =  1634316303.4780          INFILTRATION =           4.4075

          OUT:                                     OUT:
          ----                                     ----
              UZF ET =  1503575140.8015                UZF ET =           0.7250
        UZF RECHARGE =      980246.4775          UZF RECHARGE =           0.0414

            IN - OUT =   129760916.1990              IN - OUT =           3.6411

          STORAGE:                                 STORAGE:
          --------                                 --------
      STORAGE CHANGE =   129761845.0325        STORAGE CHANGE =           3.6411

 PERCENT DISCREPANCY IS DIFFERENCE BETWEEN IN-OUT MINUS CHANGE IN STORAGE
 DIVIDED BY THE AVERAGE OF IN AND OUT TIMES 100

 PERCENT DISCREPANCY =          -0.00     PERCENT DISCREPANCY =           0.00






1
  VOLUMETRIC BUDGET FOR AGRICULTURAL FIELDS AT TIME STEP   30, STRESS PERIOD  39
  ------------------------------------------------------------------------------

     CUMULATIVE VOLUMES      L**3       RATES FOR THIS TIME STEP      L**3/T
     ------------------                 ------------------------

           IN:                                      IN:
           ---                                      ---
               AG WELLS  =  1193757312.0000                 AG WELLS  =           0.0000
      DIVERSION SEGMENTS =           0.0000        DIVERSION SEGMENTS =           0.0000
           GW IRRIGATION =           0.0000             GW IRRIGATION =           0.0000
           SW IRRIGATION =           0.0000             SW IRRIGATION =           0.0000
        SYSTEM LOSSES GW =           0.0000          SYSTEM LOSSES GW =           0.0000
        SYSTEM LOSSES SW =           0.0000          SYSTEM LOSSES SW =           0.0000

                TOTAL IN =  1193757312.0000                  TOTAL IN =           0.0000

          OUT:                                     OUT:
          ----                                     ----
               AG WELLS  =           0.0000                 AG WELLS  =           0.0000
      DIVERSION SEGMENTS =           0.0000        DIVERSION SEGMENTS =           0.0000
           GW IRRIGATION =  1193757312.0000             GW IRRIGATION =           0.0000
           SW IRRIGATION =           0.0000             SW IRRIGATION =           0.0000
        SYSTEM LOSSES GW =           0.0000          SYSTEM LOSSES GW =           0.0000
        SYSTEM LOSSES SW =           0.0000          SYSTEM LOSSES SW =           0.0000

               TOTAL OUT =  1193757312.0000                 TOTAL OUT =           0.0000

                IN - OUT =           0.0000                  IN - OUT =           0.0000

     PERCENT DISCREPANCY =           0.00         PERCENT DISCREPANCY =           0.00



1
  VOLUMETRIC BUDGET FOR ENTIRE MODEL AT END OF TIME STEP   30, STRESS PERIOD  39
  ------------------------------------------------------------------------------

     CUMULATIVE VOLUMES      L**3       RATES FOR THIS TIME STEP      L**3/T
     ------------------                 ------------------------

           IN:                                      IN:
           ---                                      ---
             STORAGE     =  1668407936.0000               STORAGE     =           5.0046
       CONSTANT HEAD     =           0.0000         CONSTANT HEAD     =           0.0000
     HEAD DEP BOUNDS     =    28599360.0000       HEAD DEP BOUNDS     =           0.2876
      STREAM LEAKAGE     =  1224128896.0000        STREAM LEAKAGE     =          12.2000
        UZF RECHARGE     =      980246.3750          UZF RECHARGE     =       4.1382E-02
               GW ET     =           0.0000                 GW ET     =           0.0000
     SURFACE LEAKAGE     =           0.0000       SURFACE LEAKAGE     =           0.0000
           AG WELLS      =           0.0000             AG WELLS      =           0.0000

                TOTAL IN =  2922116352.0000                  TOTAL IN =          17.5336

          OUT:                                     OUT:
          ----                                     ----
             STORAGE     =   657622912.0000               STORAGE     =           7.5907
       CONSTANT HEAD     =           0.0000         CONSTANT HEAD     =           0.0000
     HEAD DEP BOUNDS     =    29233822.0000       HEAD DEP BOUNDS     =           0.2890
      STREAM LEAKAGE     =  1024161536.0000        STREAM LEAKAGE     =           9.6548
        UZF RECHARGE     =           0.0000          UZF RECHARGE     =           0.0000
               GW ET     =    17343536.0000                 GW ET     =           0.0000
     SURFACE LEAKAGE     =           0.0000       SURFACE LEAKAGE     =           0.0000
           AG WELLS      =  1193757312.0000             AG WELLS      =           0.0000

               TOTAL OUT =  2922119168.0000                 TOTAL OUT =          17.5344

                IN - OUT =       -2816.0000                  IN - OUT =      -7.4768E-04

     PERCENT DISCREPANCY =          -0.00         PERCENT DISCREPANCY =          -0.00






         TIME SUMMARY AT END OF TIME STEP   30 IN STRESS PERIOD   39
                    SECONDS     MINUTES      HOURS       DAYS        YEARS
                    -----------------------------------------------------------
   TIME STEP LENGTH  87667.      1461.1      24.352      1.0147     2.77799E-03
 STRESS PERIOD TIME 2.63000E+06  43833.      730.56      30.440     8.33397E-02
         TOTAL TIME 1.00026E+08 1.66710E+06  27785.      1157.7      3.1696    
1
1
                            STRESS PERIOD NO.   40, LENGTH =   2630000.    
                            -----------------------------------------------

                              NUMBER OF TIME STEPS =    30

                               MULTIPLIER FOR DELT =     1.000

                            INITIAL TIME STEP SIZE =   87666.66    

 REUSING NON-PARAMETER GHB CELLS FROM LAST STRESS PERIOD

      2 GHB CELLS

 REUSING STREAM SEGMENT DATA FROM LAST STRESS PERIOD



            AREAL INFILTRATION RATE
 READING ON UNIT   19 WITH FORMAT: (10F4.0)            

            1           2           3           4           5           6           7           8           9          10
 ........................................................................................................................
   1   1.2000E-09   0.000       0.000       0.000       0.000       0.000       0.000       0.000       0.000       0.000    
   2   2.1000E-09  2.0000E-09  8.0000E-10  8.5000E-09   0.000       0.000       0.000       0.000       0.000       0.000    
   3   5.0000E-10  1.1000E-09  8.8000E-09  5.5000E-09   0.000       0.000       0.000       0.000       0.000       0.000    
   4   8.5000E-09  1.1000E-09  1.1000E-09  1.1000E-09  2.0000E-09   0.000       0.000       0.000       0.000       0.000    
   5   8.5000E-09  1.1000E-09  1.1000E-09  1.1000E-09  1.1000E-09   0.000       0.000       0.000       0.000       0.000    
   6   8.5000E-09  5.2000E-09  2.1000E-09  1.1000E-09  1.5000E-09   0.000       0.000       0.000       0.000       0.000    
   7   8.5000E-09  5.2000E-09  2.1000E-09  1.2000E-09  2.0000E-09   0.000       0.000       0.000       0.000       0.000    
   8   5.0000E-10  5.2000E-09  2.1000E-09  1.2000E-09  5.0000E-09   0.000       0.000       0.000       0.000       0.000    
   9   5.0000E-10  5.2000E-09  2.1000E-09  1.2000E-09  5.0000E-09   0.000       0.000       0.000       0.000       0.000    
  10   5.0000E-10  5.2000E-09  2.1000E-09  1.2000E-09  5.8000E-09   0.000       0.000       0.000       0.000       0.000    
  11   1.0000E-10  1.1000E-09  1.1000E-09  1.2000E-09  5.0000E-09   0.000       0.000       0.000       0.000       0.000    
  12   1.1000E-09  1.1000E-09  1.1000E-09  1.1000E-09  2.0000E-09   0.000       0.000       0.000       0.000       0.000    
  13   1.1000E-09  2.2000E-09  2.2000E-09  2.1000E-09  1.0000E-09   0.000       0.000       0.000       0.000       0.000    
  14   2.0000E-10  5.5000E-09  5.5000E-09  5.2000E-09  1.0000E-09   0.000       0.000       0.000       0.000       0.000    
  15    0.000      8.8000E-09  8.8000E-09   0.000       0.000       0.000       0.000       0.000       0.000       0.000    

                  ET RATE =  5.000000E-10

 USING ET EXTINCTION DEPTH FROM PREVIOUS STRESS PERIOD. CURRENT PERIOD IS:      40

 USING EXTINCTION WATER CONTENT FROM PREVIOUS STRESS PERIOD. CURRENT PERIOD IS:      40

 USING AIR ENTRY PRESSURE FROM PREVIOUS STRESS PERIOD. CURRENT PERIOD IS:      40

 USING ROOT PRESSURE HEAD FROM PREVIOUS STRESS PERIOD. CURRENT PERIOD IS:      40

 USING ROOT ACTIVITY FROM PREVIOUS STRESS PERIOD. CURRENT PERIOD IS:      40

 PROCESSING AG STRESS PERIOD DATA

 READING AG STRESS PERIOD DATA

 READING IRRIGATION WELL

 END PROCESSING AG STRESS PERIOD DATA OPTIONS
 
 SOLVING FOR HEAD 
                                                   Max.-Head-Change                         Max.-Flux-Residual
  Residual-Control   Outer-Iter.   Inner-Iter.     Column Row Layer    Maximum-Head-Change  Column Row Layer    Maximum-Flux-Residual          L2-NORM 
          0                 1           2             4    7     1       0.1381624046E-01       4    7    1         0.7236523608E+00      0.1912473121E+01
          0                 2           2             4    7     1      -0.1343946987E-02       4    7    1        -0.7236547372E-01      0.1912477538E+00
          0                 3           1             4    7     1       0.9151777569E-04       4    7    1         0.5065583096E-02      0.1338739252E-01

    ------------------------------------------------
       NWT REQUIRED            3 OUTER ITERATIONS 
       AND A TOTAL OF          5 INNER ITERATIONS.
    ------------------------------------------------

 NO OUTPUT CONTROL FOR STRESS PERIOD   40   TIME STEP    1
 
 SOLVING FOR HEAD 
                                                   Max.-Head-Change                         Max.-Flux-Residual
  Residual-Control   Outer-Iter.   Inner-Iter.     Column Row Layer    Maximum-Head-Change  Column Row Layer    Maximum-Flux-Residual          L2-NORM 
          0                 1           2             4    7     1       0.1370636066E-01       4    7    1         0.7178678171E+00      0.1901163864E+01
          0                 2           2             4    7     1      -0.1333258609E-02       4    7    1        -0.7178701464E-01      0.1901168606E+00
          0                 3           1             4    7     1       0.9078993769E-04       4    7    1         0.5025090997E-02      0.1330822522E-01

    ------------------------------------------------
       NWT REQUIRED            3 OUTER ITERATIONS 
       AND A TOTAL OF          5 INNER ITERATIONS.
    ------------------------------------------------

 NO OUTPUT CONTROL FOR STRESS PERIOD   40   TIME STEP    2
 
 SOLVING FOR HEAD 
                                                   Max.-Head-Change                         Max.-Flux-Residual
  Residual-Control   Outer-Iter.   Inner-Iter.     Column Row Layer    Maximum-Head-Change  Column Row Layer    Maximum-Flux-Residual          L2-NORM 
          0                 1           2             4    7     1       0.1359785631E-01       4    7    1         0.7121560615E+00      0.1889978301E+01
          0                 2           2             4    7     1      -0.1322704026E-02       4    7    1        -0.7121583450E-01      0.1889983381E+00
          0                 3           1             4    7     1       0.9007121031E-04       4    7    1         0.4985108404E-02      0.1322997105E-01

    ------------------------------------------------
       NWT REQUIRED            3 OUTER ITERATIONS 
       AND A TOTAL OF          5 INNER ITERATIONS.
    ------------------------------------------------

 NO OUTPUT CONTROL FOR STRESS PERIOD   40   TIME STEP    3
 
 SOLVING FOR HEAD 
                                                   Max.-Head-Change                         Max.-Flux-Residual
  Residual-Control   Outer-Iter.   Inner-Iter.     Column Row Layer    Maximum-Head-Change  Column Row Layer    Maximum-Flux-Residual          L2-NORM 
          0                 1           2             4    7     1       0.1349083788E-01       4    7    1         0.7065229397E+00      0.1878923101E+01
          0                 2           2             4    7     1      -0.1312293985E-02       4    7    1        -0.7065251786E-01      0.1878928771E+00
          0                 3           1             4    7     1       0.8936232593E-04       4    7    1         0.4945676264E-02      0.1315270754E-01

    ------------------------------------------------
       NWT REQUIRED            3 OUTER ITERATIONS 
       AND A TOTAL OF          5 INNER ITERATIONS.
    ------------------------------------------------

 NO OUTPUT CONTROL FOR STRESS PERIOD   40   TIME STEP    4
 
 SOLVING FOR HEAD 
                                                   Max.-Head-Change                         Max.-Flux-Residual
  Residual-Control   Outer-Iter.   Inner-Iter.     Column Row Layer    Maximum-Head-Change  Column Row Layer    Maximum-Flux-Residual          L2-NORM 
          0                 1           2             4    7     1       0.1338513751E-01       4    7    1         0.7009595408E+00      0.1867993767E+01
          0                 2           2             4    7     1      -0.1302012157E-02       4    7    1        -0.7009617363E-01      0.1867999436E+00
          0                 3           1             4    7     1       0.8866217196E-04       4    7    1         0.4906732196E-02      0.1307608953E-01

    ------------------------------------------------
       NWT REQUIRED            3 OUTER ITERATIONS 
       AND A TOTAL OF          5 INNER ITERATIONS.
    ------------------------------------------------

 NO OUTPUT CONTROL FOR STRESS PERIOD   40   TIME STEP    5
 
 SOLVING FOR HEAD 
                                                   Max.-Head-Change                         Max.-Flux-Residual
  Residual-Control   Outer-Iter.   Inner-Iter.     Column Row Layer    Maximum-Head-Change  Column Row Layer    Maximum-Flux-Residual          L2-NORM 
          0                 1           2             4    7     1       0.1328073062E-01       4    7    1         0.6954644812E+00      0.1857157797E+01
          0                 2           2             4    7     1      -0.1291856150E-02       4    7    1        -0.6954666341E-01      0.1857161003E+00
          0                 3           1             4    7     1       0.8797058627E-04       4    7    1         0.4868266507E-02      0.1300035392E-01

    ------------------------------------------------
       NWT REQUIRED            3 OUTER ITERATIONS 
       AND A TOTAL OF          5 INNER ITERATIONS.
    ------------------------------------------------

 NO OUTPUT CONTROL FOR STRESS PERIOD   40   TIME STEP    6
 
 SOLVING FOR HEAD 
                                                   Max.-Head-Change                         Max.-Flux-Residual
  Residual-Control   Outer-Iter.   Inner-Iter.     Column Row Layer    Maximum-Head-Change  Column Row Layer    Maximum-Flux-Residual          L2-NORM 
          0                 1           2             4    7     1       0.1317772562E-01       4    7    1         0.6900438056E+00      0.1846655344E+01
          0                 2           2             4    7     1      -0.1281836511E-02       4    7    1        -0.6900459172E-01      0.1846729470E+00
          0                 3           1             4    7     1       0.8728828658E-04       4    7    1         0.4830321513E-02      0.1293211800E-01

    ------------------------------------------------
       NWT REQUIRED            3 OUTER ITERATIONS 
       AND A TOTAL OF          5 INNER ITERATIONS.
    ------------------------------------------------

 NO OUTPUT CONTROL FOR STRESS PERIOD   40   TIME STEP    7
 
 SOLVING FOR HEAD 
                                                   Max.-Head-Change                         Max.-Flux-Residual
  Residual-Control   Outer-Iter.   Inner-Iter.     Column Row Layer    Maximum-Head-Change  Column Row Layer    Maximum-Flux-Residual          L2-NORM 
          0                 1           2             4    7     1       0.1307596017E-01       4    7    1         0.6846884956E+00      0.1835998797E+01
          0                 2           2             4    7     1      -0.1271937447E-02       4    7    1        -0.6846905666E-01      0.1836042022E+00
          0                 3           1             4    7     1       0.8661419732E-04       4    7    1         0.4792834072E-02      0.1285539004E-01

    ------------------------------------------------
       NWT REQUIRED            3 OUTER ITERATIONS 
       AND A TOTAL OF          5 INNER ITERATIONS.
    ------------------------------------------------

 NO OUTPUT CONTROL FOR STRESS PERIOD   40   TIME STEP    8
 
 SOLVING FOR HEAD 
                                                   Max.-Head-Change                         Max.-Flux-Residual
  Residual-Control   Outer-Iter.   Inner-Iter.     Column Row Layer    Maximum-Head-Change  Column Row Layer    Maximum-Flux-Residual          L2-NORM 
          0                 1           2             4    7     1       0.1297554417E-01       4    7    1         0.6794047739E+00      0.1825481317E+01
          0                 2           2             4    7     1      -0.1262169650E-02       4    7    1        -0.6794068056E-01      0.1825509938E+00
          0                 3           1             4    7     1       0.8594904732E-04       4    7    1         0.4755847772E-02      0.1278099960E-01

    ------------------------------------------------
       NWT REQUIRED            3 OUTER ITERATIONS 
       AND A TOTAL OF          5 INNER ITERATIONS.
    ------------------------------------------------

 NO OUTPUT CONTROL FOR STRESS PERIOD   40   TIME STEP    9
 
 SOLVING FOR HEAD 
                                                   Max.-Head-Change                         Max.-Flux-Residual
  Residual-Control   Outer-Iter.   Inner-Iter.     Column Row Layer    Maximum-Head-Change  Column Row Layer    Maximum-Flux-Residual          L2-NORM 
          0                 1           2             4    7     1       0.1287645322E-01       4    7    1         0.6741910197E+00      0.1815098225E+01
          0                 2           2             4    7     1      -0.1252530746E-02       4    7    1        -0.6741930129E-01      0.1815114421E+00
          0                 3           1             4    7     1       0.8529267412E-04       4    7    1         0.4719351244E-02      0.1270744117E-01

    ------------------------------------------------
       NWT REQUIRED            3 OUTER ITERATIONS 
       AND A TOTAL OF          5 INNER ITERATIONS.
    ------------------------------------------------

 NO OUTPUT CONTROL FOR STRESS PERIOD   40   TIME STEP   10
 
 SOLVING FOR HEAD 
                                                   Max.-Head-Change                         Max.-Flux-Residual
  Residual-Control   Outer-Iter.   Inner-Iter.     Column Row Layer    Maximum-Head-Change  Column Row Layer    Maximum-Flux-Residual          L2-NORM 
          0                 1           2             4    7     1       0.1277838750E-01       4    7    1         0.6690313247E+00      0.1804837947E+01
          0                 2           2             4    7     1      -0.1242991570E-02       4    7    1        -0.6690332804E-01      0.1804846392E+00
          0                 3           1             4    7     1       0.8464309202E-04       4    7    1         0.4683233127E-02      0.1263501420E-01

    ------------------------------------------------
       NWT REQUIRED            3 OUTER ITERATIONS 
       AND A TOTAL OF          5 INNER ITERATIONS.
    ------------------------------------------------

 NO OUTPUT CONTROL FOR STRESS PERIOD   40   TIME STEP   11
 
 SOLVING FOR HEAD 
                                                   Max.-Head-Change                         Max.-Flux-Residual
  Residual-Control   Outer-Iter.   Inner-Iter.     Column Row Layer    Maximum-Head-Change  Column Row Layer    Maximum-Flux-Residual          L2-NORM 
          0                 1           2             4    7     1       0.1268173755E-01       4    7    1         0.6639467494E+00      0.1794702900E+01
          0                 2           2             4    7     1      -0.1233590111E-02       4    7    1        -0.6639486684E-01      0.1794706804E+00
          0                 3           1             4    7     1       0.8400288810E-04       4    7    1         0.4647640864E-02      0.1256364187E-01

    ------------------------------------------------
       NWT REQUIRED            3 OUTER ITERATIONS 
       AND A TOTAL OF          5 INNER ITERATIONS.
    ------------------------------------------------

 NO OUTPUT CONTROL FOR STRESS PERIOD   40   TIME STEP   12
 
 SOLVING FOR HEAD 
                                                   Max.-Head-Change                         Max.-Flux-Residual
  Residual-Control   Outer-Iter.   Inner-Iter.     Column Row Layer    Maximum-Head-Change  Column Row Layer    Maximum-Flux-Residual          L2-NORM 
          0                 1           2             4    7     1       0.1258619994E-01       4    7    1         0.6589209369E+00      0.1784673678E+01
          0                 2           2             4    7     1      -0.1224296853E-02       4    7    1        -0.6589228200E-01      0.1784674974E+00
          0                 3           1             4    7     1       0.8337005217E-04       4    7    1         0.4612459956E-02      0.1249316608E-01

    ------------------------------------------------
       NWT REQUIRED            3 OUTER ITERATIONS 
       AND A TOTAL OF          5 INNER ITERATIONS.
    ------------------------------------------------

 NO OUTPUT CONTROL FOR STRESS PERIOD   40   TIME STEP   13
 
 SOLVING FOR HEAD 
                                                   Max.-Head-Change                         Max.-Flux-Residual
  Residual-Control   Outer-Iter.   Inner-Iter.     Column Row Layer    Maximum-Head-Change  Column Row Layer    Maximum-Flux-Residual          L2-NORM 
          0                 1           2             4    7     1       0.1249175913E-01       4    7    1         0.6539527969E+00      0.1774767006E+01
          0                 2           2             4    7     1      -0.1215110285E-02       4    7    1        -0.6539546451E-01      0.1774767613E+00
          0                 3           1             4    7     1       0.8274448116E-04       4    7    1         0.4577682726E-02      0.1242363193E-01

    ------------------------------------------------
       NWT REQUIRED            3 OUTER ITERATIONS 
       AND A TOTAL OF          5 INNER ITERATIONS.
    ------------------------------------------------

 NO OUTPUT CONTROL FOR STRESS PERIOD   40   TIME STEP   14
 
 SOLVING FOR HEAD 
                                                   Max.-Head-Change                         Max.-Flux-Residual
  Residual-Control   Outer-Iter.   Inner-Iter.     Column Row Layer    Maximum-Head-Change  Column Row Layer    Maximum-Flux-Residual          L2-NORM 
          0                 1           2             4    7     1       0.1239852638E-01       4    7    1         0.6490488455E+00      0.1764961505E+01
          0                 2           2             4    7     1      -0.1206041230E-02       4    7    1        -0.6490506595E-01      0.1764962316E+00
          0                 3           1             4    7     1       0.8212691279E-04       4    7    1         0.4543354861E-02      0.1235481632E-01

    ------------------------------------------------
       NWT REQUIRED            3 OUTER ITERATIONS 
       AND A TOTAL OF          5 INNER ITERATIONS.
    ------------------------------------------------

 NO OUTPUT CONTROL FOR STRESS PERIOD   40   TIME STEP   15
 
 SOLVING FOR HEAD 
                                                   Max.-Head-Change                         Max.-Flux-Residual
  Residual-Control   Outer-Iter.   Inner-Iter.     Column Row Layer    Maximum-Head-Change  Column Row Layer    Maximum-Flux-Residual          L2-NORM 
          0                 1           2             4    7     1       0.1230648263E-01       4    7    1         0.6442075302E+00      0.1755276794E+01
          0                 2           2             4    7     1      -0.1197087834E-02       4    7    1        -0.6442093110E-01      0.1755278506E+00
          0                 3           1             4    7     1       0.8151722008E-04       4    7    1         0.4509465436E-02      0.1228704886E-01

    ------------------------------------------------
       NWT REQUIRED            3 OUTER ITERATIONS 
       AND A TOTAL OF          5 INNER ITERATIONS.
    ------------------------------------------------

 NO OUTPUT CONTROL FOR STRESS PERIOD   40   TIME STEP   16
 
 SOLVING FOR HEAD 
                                                   Max.-Head-Change                         Max.-Flux-Residual
  Residual-Control   Outer-Iter.   Inner-Iter.     Column Row Layer    Maximum-Head-Change  Column Row Layer    Maximum-Flux-Residual          L2-NORM 
          0                 1           2             4    7     1       0.1221546346E-01       4    7    1         0.6394205408E+00      0.1745690873E+01
          0                 2           2             4    7     1      -0.1188234102E-02       4    7    1        -0.6394222889E-01      0.1745693923E+00
          0                 3           1             4    7     1       0.8091431444E-04       4    7    1         0.4475956305E-02      0.1221992476E-01

    ------------------------------------------------
       NWT REQUIRED            3 OUTER ITERATIONS 
       AND A TOTAL OF          5 INNER ITERATIONS.
    ------------------------------------------------

 NO OUTPUT CONTROL FOR STRESS PERIOD   40   TIME STEP   17
 
 SOLVING FOR HEAD 
                                                   Max.-Head-Change                         Max.-Flux-Residual
  Residual-Control   Outer-Iter.   Inner-Iter.     Column Row Layer    Maximum-Head-Change  Column Row Layer    Maximum-Flux-Residual          L2-NORM 
          0                 1           2             4    7     1       0.1212558773E-01       4    7    1         0.6346939957E+00      0.1736207924E+01
          0                 2           2             4    7     1      -0.1179491597E-02       4    7    1        -0.6346957120E-01      0.1736212494E+00
          0                 3           1             4    7     1       0.8031898271E-04       4    7    1         0.4442870279E-02      0.1215355023E-01

    ------------------------------------------------
       NWT REQUIRED            3 OUTER ITERATIONS 
       AND A TOTAL OF          5 INNER ITERATIONS.
    ------------------------------------------------

 NO OUTPUT CONTROL FOR STRESS PERIOD   40   TIME STEP   18
 
 SOLVING FOR HEAD 
                                                   Max.-Head-Change                         Max.-Flux-Residual
  Residual-Control   Outer-Iter.   Inner-Iter.     Column Row Layer    Maximum-Head-Change  Column Row Layer    Maximum-Flux-Residual          L2-NORM 
          0                 1           2             4    7     1       0.1203683649E-01       4    7    1         0.6300267363E+00      0.1726834137E+01
          0                 2           2             4    7     1      -0.1170858475E-02       4    7    1        -0.6300284214E-01      0.1726840349E+00
          0                 3           1             4    7     1       0.7973109956E-04       4    7    1         0.4410199261E-02      0.1208794325E-01

    ------------------------------------------------
       NWT REQUIRED            3 OUTER ITERATIONS 
       AND A TOTAL OF          5 INNER ITERATIONS.
    ------------------------------------------------

 NO OUTPUT CONTROL FOR STRESS PERIOD   40   TIME STEP   19
 
 SOLVING FOR HEAD 
                                                   Max.-Head-Change                         Max.-Flux-Residual
  Residual-Control   Outer-Iter.   Inner-Iter.     Column Row Layer    Maximum-Head-Change  Column Row Layer    Maximum-Flux-Residual          L2-NORM 
          0                 1           2             4    7     1       0.1194904989E-01       4    7    1         0.6254104569E+00      0.1717552268E+01
          0                 2           2             4    7     1      -0.1162319187E-02       4    7    1        -0.6254121116E-01      0.1717560146E+00
          0                 3           1             4    7     1       0.7914960611E-04       4    7    1         0.4377885100E-02      0.1202299212E-01

    ------------------------------------------------
       NWT REQUIRED            3 OUTER ITERATIONS 
       AND A TOTAL OF          5 INNER ITERATIONS.
    ------------------------------------------------

 NO OUTPUT CONTROL FOR STRESS PERIOD   40   TIME STEP   20
 
 SOLVING FOR HEAD 
                                                   Max.-Head-Change                         Max.-Flux-Residual
  Residual-Control   Outer-Iter.   Inner-Iter.     Column Row Layer    Maximum-Head-Change  Column Row Layer    Maximum-Flux-Residual          L2-NORM 
          0                 1           2             4    7     1       0.1186234698E-01       4    7    1         0.6208515152E+00      0.1708374165E+01
          0                 2           2             4    7     1      -0.1153885314E-02       4    7    1        -0.6208531405E-01      0.1708383610E+00
          0                 3           1             4    7     1       0.7857529096E-04       4    7    1         0.4345972317E-02      0.1195879334E-01

    ------------------------------------------------
       NWT REQUIRED            3 OUTER ITERATIONS 
       AND A TOTAL OF          5 INNER ITERATIONS.
    ------------------------------------------------

 NO OUTPUT CONTROL FOR STRESS PERIOD   40   TIME STEP   21
 
 SOLVING FOR HEAD 
                                                   Max.-Head-Change                         Max.-Flux-Residual
  Residual-Control   Outer-Iter.   Inner-Iter.     Column Row Layer    Maximum-Head-Change  Column Row Layer    Maximum-Flux-Residual          L2-NORM 
          0                 1           2             4    7     1       0.1177670725E-01       4    7    1         0.6163487609E+00      0.1699290563E+01
          0                 2           2             4    7     1      -0.1145554861E-02       4    7    1        -0.6163503571E-01      0.1699301714E+00
          0                 3           1             4    7     1       0.7800801838E-04       4    7    1         0.4314452845E-02      0.1189524882E-01

    ------------------------------------------------
       NWT REQUIRED            3 OUTER ITERATIONS 
       AND A TOTAL OF          5 INNER ITERATIONS.
    ------------------------------------------------

 NO OUTPUT CONTROL FOR STRESS PERIOD   40   TIME STEP   22
 
 SOLVING FOR HEAD 
                                                   Max.-Head-Change                         Max.-Flux-Residual
  Residual-Control   Outer-Iter.   Inner-Iter.     Column Row Layer    Maximum-Head-Change  Column Row Layer    Maximum-Flux-Residual          L2-NORM 
          0                 1           2             4    7     1       0.1169210957E-01       4    7    1         0.6119011311E+00      0.1690303950E+01
          0                 2           2             4    7     1      -0.1137325771E-02       4    7    1        -0.6119026989E-01      0.1690316292E+00
          0                 3           1             4    7     1       0.7744764814E-04       4    7    1         0.4283319254E-02      0.1183237237E-01

    ------------------------------------------------
       NWT REQUIRED            3 OUTER ITERATIONS 
       AND A TOTAL OF          5 INNER ITERATIONS.
    ------------------------------------------------

 NO OUTPUT CONTROL FOR STRESS PERIOD   40   TIME STEP   23
 
 SOLVING FOR HEAD 
                                                   Max.-Head-Change                         Max.-Flux-Residual
  Residual-Control   Outer-Iter.   Inner-Iter.     Column Row Layer    Maximum-Head-Change  Column Row Layer    Maximum-Flux-Residual          L2-NORM 
          0                 1           2             4    7     1       0.1160840037E-01       4    7    1         0.6075002063E+00      0.1681412628E+01
          0                 2           2             4    7     1      -0.1129183107E-02       4    7    1        -0.6075017464E-01      0.1681426262E+00
          0                 3           1             4    7     1       0.7689316361E-04       4    7    1         0.4252512611E-02      0.1177017841E-01

    ------------------------------------------------
       NWT REQUIRED            3 OUTER ITERATIONS 
       AND A TOTAL OF          5 INNER ITERATIONS.
    ------------------------------------------------

 NO OUTPUT CONTROL FOR STRESS PERIOD   40   TIME STEP   24
 
 SOLVING FOR HEAD 
                                                   Max.-Head-Change                         Max.-Flux-Residual
  Residual-Control   Outer-Iter.   Inner-Iter.     Column Row Layer    Maximum-Head-Change  Column Row Layer    Maximum-Flux-Residual          L2-NORM 
          0                 1           2             4    7     1       0.1152570225E-01       4    7    1         0.6031526707E+00      0.1672611939E+01
          0                 2           2             4    7     1      -0.1121138795E-02       4    7    1        -0.6031541838E-01      0.1672626749E+00
          0                 3           1             4    7     1       0.7634537622E-04       4    7    1         0.4222079686E-02      0.1170860464E-01

    ------------------------------------------------
       NWT REQUIRED            3 OUTER ITERATIONS 
       AND A TOTAL OF          5 INNER ITERATIONS.
    ------------------------------------------------

 NO OUTPUT CONTROL FOR STRESS PERIOD   40   TIME STEP   25
 
 SOLVING FOR HEAD 
                                                   Max.-Head-Change                         Max.-Flux-Residual
  Residual-Control   Outer-Iter.   Inner-Iter.     Column Row Layer    Maximum-Head-Change  Column Row Layer    Maximum-Flux-Residual          L2-NORM 
          0                 1           2             4    7     1       0.1144386019E-01       4    7    1         0.5988502343E+00      0.1663905066E+01
          0                 2           2             4    7     1      -0.1113177755E-02       4    7    1        -0.5988517208E-01      0.1663920934E+00
          0                 3           1             4    7     1       0.7580325893E-04       4    7    1         0.4191962440E-02      0.1164766212E-01

    ------------------------------------------------
       NWT REQUIRED            3 OUTER ITERATIONS 
       AND A TOTAL OF          5 INNER ITERATIONS.
    ------------------------------------------------

 NO OUTPUT CONTROL FOR STRESS PERIOD   40   TIME STEP   26
 
 SOLVING FOR HEAD 
                                                   Max.-Head-Change                         Max.-Flux-Residual
  Residual-Control   Outer-Iter.   Inner-Iter.     Column Row Layer    Maximum-Head-Change  Column Row Layer    Maximum-Flux-Residual          L2-NORM 
          0                 1           2             4    7     1       0.1136312970E-01       4    7    1         0.5946068312E+00      0.1655286523E+01
          0                 2           2             4    7     1      -0.1105324841E-02       4    7    1        -0.5946082918E-01      0.1655303184E+00
          0                 3           1             4    7     1       0.7526850526E-04       4    7    1         0.4162258458E-02      0.1158739420E-01

    ------------------------------------------------
       NWT REQUIRED            3 OUTER ITERATIONS 
       AND A TOTAL OF          5 INNER ITERATIONS.
    ------------------------------------------------

 NO OUTPUT CONTROL FOR STRESS PERIOD   40   TIME STEP   27
 
 SOLVING FOR HEAD 
                                                   Max.-Head-Change                         Max.-Flux-Residual
  Residual-Control   Outer-Iter.   Inner-Iter.     Column Row Layer    Maximum-Head-Change  Column Row Layer    Maximum-Flux-Residual          L2-NORM 
          0                 1           2             4    7     1       0.1128321754E-01       4    7    1         0.5904064127E+00      0.1646756873E+01
          0                 2           2             4    7     1      -0.1097551530E-02       4    7    1        -0.5904078480E-01      0.1646774168E+00
          0                 3           1             4    7     1       0.7473917176E-04       4    7    1         0.4132855373E-02      0.1152769439E-01

    ------------------------------------------------
       NWT REQUIRED            3 OUTER ITERATIONS 
       AND A TOTAL OF          5 INNER ITERATIONS.
    ------------------------------------------------

 NO OUTPUT CONTROL FOR STRESS PERIOD   40   TIME STEP   28
 
 SOLVING FOR HEAD 
                                                   Max.-Head-Change                         Max.-Flux-Residual
  Residual-Control   Outer-Iter.   Inner-Iter.     Column Row Layer    Maximum-Head-Change  Column Row Layer    Maximum-Flux-Residual          L2-NORM 
          0                 1           2             4    7     1       0.1120424610E-01       4    7    1         0.5862557479E+00      0.1638314709E+01
          0                 2           2             4    7     1      -0.1089869725E-02       4    7    1        -0.5862571582E-01      0.1638332690E+00
          0                 3           1             4    7     1       0.7421606963E-04       4    7    1         0.4103800549E-02      0.1146861657E-01

    ------------------------------------------------
       NWT REQUIRED            3 OUTER ITERATIONS 
       AND A TOTAL OF          5 INNER ITERATIONS.
    ------------------------------------------------

 NO OUTPUT CONTROL FOR STRESS PERIOD   40   TIME STEP   29
 
 SOLVING FOR HEAD 
                                                   Max.-Head-Change                         Max.-Flux-Residual
  Residual-Control   Outer-Iter.   Inner-Iter.     Column Row Layer    Maximum-Head-Change  Column Row Layer    Maximum-Flux-Residual          L2-NORM 
          0                 1           2             4    7     1       0.1112619993E-01       4    7    1         0.5821538573E+00      0.1629956929E+01
          0                 2           2             4    7     1      -0.1082277925E-02       4    7    1        -0.5821552435E-01      0.1629975456E+00
          0                 3           1             4    7     1       0.7369909651E-04       4    7    1         0.4075087151E-02      0.1141011957E-01

    ------------------------------------------------
       NWT REQUIRED            3 OUTER ITERATIONS 
       AND A TOTAL OF          5 INNER ITERATIONS.
    ------------------------------------------------

 NO OUTPUT CONTROL FOR STRESS PERIOD   40   TIME STEP   30



 STREAM LISTING     PERIOD     40   STEP       30

 LAYER ROW COL. STREAM  RCH.  FLOW INTO     FLOW TO   FLOW OUT OF   OVRLND.     DIRECT     STREAM       STREAM     STREAM     STREAM   STREAMBED  STREAMBED
                SEG.NO.  NO.  STRM. RCH.    AQUIFER    STRM. RCH.    RUNOFF     PRECIP       ET          HEAD       DEPTH      WIDTH   CONDCTNC.   GRADIENT

   1    1    1     1     1    1.9000E+01  2.1427E-01   1.8786E+01  0.000E+00  0.000E+00  0.000E+00  1.09413E+03  1.082E+00  1.166E+01  5.249E-02  1.361E+00
   1    2    2     1     2    1.8786E+01  3.3054E-01   1.8455E+01  0.000E+00  0.000E+00  0.000E+00  1.08914E+03  1.077E+00  1.158E+01  8.107E-02  1.359E+00
   1    3    3     1     3    1.8455E+01  2.8064E-01   1.8175E+01  0.000E+00  0.000E+00  0.000E+00  1.08349E+03  1.072E+00  1.149E+01  6.892E-02  1.357E+00
   1    3    4     1     4    1.8175E+01  2.5740E-01   1.7917E+01  0.000E+00  0.000E+00  0.000E+00  1.07848E+03  1.068E+00  1.140E+01  6.328E-02  1.356E+00
   1    4    5     2     1    1.5917E+01  3.0542E-01   1.5612E+01  0.000E+00  0.000E+00  0.000E+00  1.07285E+03  9.157E-01  1.200E+01  7.800E-02  1.305E+00
   1    5    6     2     2    1.5612E+01  2.3438E-01   1.5377E+01  0.000E+00  0.000E+00  0.000E+00  1.06742E+03  9.063E-01  1.200E+01  6.000E-02  1.302E+00
   1    6    6     2     3    1.5377E+01  2.3388E-01   1.5143E+01  0.000E+00  0.000E+00  0.000E+00  1.06269E+03  8.980E-01  1.200E+01  6.000E-02  1.299E+00
   1    7    6     2     4    1.5143E+01  2.3338E-01   1.4910E+01  0.000E+00  0.000E+00  0.000E+00  1.05797E+03  8.897E-01  1.200E+01  6.000E-02  1.297E+00
   1    8    6     2     5    1.4910E+01  2.3289E-01   1.4677E+01  0.000E+00  0.000E+00  0.000E+00  1.05324E+03  8.814E-01  1.200E+01  6.000E-02  1.294E+00
   1    3    5     3     1    2.0000E+00  2.8252E-01   1.7175E+00  0.000E+00  0.000E+00  0.000E+00  1.07555E+03  1.909E+00  9.636E+00  7.227E-02  1.955E+00
   1    3    6     3     2    1.7175E+00  2.4905E-01   1.4684E+00  0.000E+00  0.000E+00  0.000E+00  1.07264E+03  1.727E+00  8.909E+00  6.682E-02  1.864E+00
   1    3    7     3     3    1.4684E+00  1.9718E-01   1.2712E+00  0.000E+00  0.000E+00  0.000E+00  1.06987E+03  1.555E+00  8.218E+00  5.547E-02  1.777E+00
   1    4    8     3     4    1.2712E+00  2.2567E-01   1.0456E+00  0.000E+00  0.000E+00  0.000E+00  1.06682E+03  1.364E+00  7.455E+00  6.709E-02  1.682E+00
   1    5    8     3     5    1.0456E+00  1.5790E-01   8.8768E-01  0.000E+00  0.000E+00  0.000E+00  1.06362E+03  1.164E+00  6.655E+00  4.991E-02  1.582E+00
   1    6    8     3     6    8.8768E-01  5.5980E-02   8.3170E-01  0.000E+00  0.000E+00  0.000E+00  1.06158E+03  1.036E+00  6.145E+00  1.844E-02  1.518E+00
   1    5   10     4     1    1.0000E+01  9.0919E-02   9.9091E+00  0.000E+00  0.000E+00  0.000E+00  1.07836E+03  6.368E-01  1.000E+01  2.500E-02  1.212E+00
   1    5    9     4     2    9.9091E+00  1.8158E-01   9.7275E+00  0.000E+00  0.000E+00  0.000E+00  1.07154E+03  6.315E-01  1.000E+01  5.000E-02  1.211E+00
   1    6    8     4     3    9.7275E+00  1.2689E-01   9.6006E+00  0.000E+00  0.000E+00  0.000E+00  1.06381E+03  6.256E-01  1.000E+01  3.500E-02  1.209E+00
   1    6    8     5     1    1.0432E+01  2.2686E-01   1.0205E+01  0.000E+00  0.000E+00  0.000E+00  1.05868E+03  6.790E-01  1.542E+01  6.166E-02  1.226E+00
   1    7    7     5     2    1.0205E+01  2.7894E-01   9.9265E+00  0.000E+00  0.000E+00  0.000E+00  1.05417E+03  6.732E-01  1.519E+01  7.594E-02  1.224E+00
   1    8    7     5     3    9.9265E+00  1.9221E-01   9.7343E+00  0.000E+00  0.000E+00  0.000E+00  1.04992E+03  6.676E-01  1.497E+01  5.241E-02  1.223E+00
   1    8    6     5     4    9.7343E+00  1.3577E-01   9.5985E+00  0.000E+00  0.000E+00  0.000E+00  1.04691E+03  6.637E-01  1.482E+01  3.706E-02  1.221E+00
   1    9    6     6     1    2.4276E+01  2.5176E-01   2.4024E+01  0.000E+00  0.000E+00  0.000E+00  1.04392E+03  1.196E+00  1.200E+01  6.000E-02  1.399E+00
   1   10    7     6     2    2.4024E+01  2.5131E-01   2.3773E+01  0.000E+00  0.000E+00  0.000E+00  1.03937E+03  1.188E+00  1.200E+01  6.000E-02  1.396E+00
   1   11    7     6     3    2.3773E+01  2.5086E-01   2.3522E+01  0.000E+00  0.000E+00  0.000E+00  1.03482E+03  1.181E+00  1.200E+01  6.000E-02  1.394E+00
   1   12    7     6     4    2.3522E+01  2.5041E-01   2.3271E+01  0.000E+00  0.000E+00  0.000E+00  1.03026E+03  1.173E+00  1.200E+01  6.000E-02  1.391E+00
   1   13    7     6     5    2.3271E+01  9.8932E-03   2.3261E+01  0.000E+00  0.000E+00  0.000E+00  1.02708E+03  1.170E+00  1.200E+01  2.400E-02  1.374E-01
   1   14    9     7     1    1.5000E+02  1.3648E+00   1.4864E+02  0.000E+00  0.000E+00  0.000E+00  1.03987E+03  2.288E+00  5.529E+01  5.593E-01  8.134E-01
   1   13    8     7     2    1.4864E+02  1.9526E+00   1.4668E+02  0.000E+00  0.000E+00  0.000E+00  1.03478E+03  2.279E+00  5.525E+01  6.147E-01  1.059E+00
   1   13    7     7     3    1.4668E+02  1.6875E+00   1.4500E+02  0.000E+00  0.000E+00  0.000E+00  1.02969E+03  2.269E+00  5.521E+01  5.584E-01  1.007E+00
   1   13    6     8     1    1.6826E+02  1.1269E+00   1.6713E+02  0.000E+00  0.000E+00  0.000E+00  1.02481E+03  2.937E+00  4.259E+01  4.340E-01  8.655E-01
   1   13    5     8     2    1.6713E+02  3.6815E-01   1.6676E+02  0.000E+00  0.000E+00  0.000E+00  1.01856E+03  2.932E+00  4.252E+01  4.333E-01  2.832E-01
   1   13    4     8     3    1.6676E+02 -1.8116E+00   1.6857E+02  0.000E+00  0.000E+00  0.000E+00  1.01231E+03  2.937E+00  4.259E+01  4.340E+00 -1.392E-01
   1   13    3     8     4    1.6857E+02 -3.3652E+00   1.7194E+02  0.000E+00  0.000E+00  0.000E+00  1.00608E+03  2.954E+00  4.283E+01  4.365E+00 -2.570E-01
   1   13    2     8     5    1.7194E+02 -2.5040E+00   1.7444E+02  0.000E+00  0.000E+00  0.000E+00  9.99848E+02  2.973E+00  4.311E+01  4.393E+00 -1.900E-01
   1   13    1     8     6    1.7444E+02 -1.9632E+00   1.7641E+02  0.000E+00  0.000E+00  0.000E+00  9.94862E+02  2.987E+00  4.331E+01  2.648E+00 -2.471E-01





UNSATURATED ZONE PACKAGE VOLUMETRIC BUDGET FOR  TIME STEP    30 STRESS PERIOD   40
  ------------------------------------------------------------------------------



     CUMULATIVE VOLUMES      L**3       RATES FOR THIS TIME STEP      L**3/T
     ------------------                 ------------------------

           IN:                                      IN:
           ---                                      ---
        INFILTRATION =  1645908028.0361          INFILTRATION =           4.4075

          OUT:                                     OUT:
          ----                                     ----
              UZF ET =  1505481890.6700                UZF ET =           0.7250
        UZF RECHARGE =     1176500.3698          UZF RECHARGE =           0.0800

            IN - OUT =   139249636.9963              IN - OUT =           3.6025

          STORAGE:                                 STORAGE:
          --------                                 --------
      STORAGE CHANGE =   139250565.7592        STORAGE CHANGE =           3.6025

 PERCENT DISCREPANCY IS DIFFERENCE BETWEEN IN-OUT MINUS CHANGE IN STORAGE
 DIVIDED BY THE AVERAGE OF IN AND OUT TIMES 100

 PERCENT DISCREPANCY =          -0.00     PERCENT DISCREPANCY =           0.00






1
  VOLUMETRIC BUDGET FOR AGRICULTURAL FIELDS AT TIME STEP   30, STRESS PERIOD  40
  ------------------------------------------------------------------------------

     CUMULATIVE VOLUMES      L**3       RATES FOR THIS TIME STEP      L**3/T
     ------------------                 ------------------------

           IN:                                      IN:
           ---                                      ---
               AG WELLS  =  1193757312.0000                 AG WELLS  =           0.0000
      DIVERSION SEGMENTS =           0.0000        DIVERSION SEGMENTS =           0.0000
           GW IRRIGATION =           0.0000             GW IRRIGATION =           0.0000
           SW IRRIGATION =           0.0000             SW IRRIGATION =           0.0000
        SYSTEM LOSSES GW =           0.0000          SYSTEM LOSSES GW =           0.0000
        SYSTEM LOSSES SW =           0.0000          SYSTEM LOSSES SW =           0.0000

                TOTAL IN =  1193757312.0000                  TOTAL IN =           0.0000

          OUT:                                     OUT:
          ----                                     ----
               AG WELLS  =           0.0000                 AG WELLS  =           0.0000
      DIVERSION SEGMENTS =           0.0000        DIVERSION SEGMENTS =           0.0000
           GW IRRIGATION =  1193757312.0000             GW IRRIGATION =           0.0000
           SW IRRIGATION =           0.0000             SW IRRIGATION =           0.0000
        SYSTEM LOSSES GW =           0.0000          SYSTEM LOSSES GW =           0.0000
        SYSTEM LOSSES SW =           0.0000          SYSTEM LOSSES SW =           0.0000

               TOTAL OUT =  1193757312.0000                 TOTAL OUT =           0.0000

                IN - OUT =           0.0000                  IN - OUT =           0.0000

     PERCENT DISCREPANCY =           0.00         PERCENT DISCREPANCY =           0.00



1
  VOLUMETRIC BUDGET FOR ENTIRE MODEL AT END OF TIME STEP   30, STRESS PERIOD  40
  ------------------------------------------------------------------------------

     CUMULATIVE VOLUMES      L**3       RATES FOR THIS TIME STEP      L**3/T
     ------------------                 ------------------------

           IN:                                      IN:
           ---                                      ---
             STORAGE     =  1680385024.0000               STORAGE     =           4.1836
       CONSTANT HEAD     =           0.0000         CONSTANT HEAD     =           0.0000
     HEAD DEP BOUNDS     =    29355930.0000       HEAD DEP BOUNDS     =           0.2877
      STREAM LEAKAGE     =  1256268288.0000        STREAM LEAKAGE     =          12.2384
        UZF RECHARGE     =     1176500.1250          UZF RECHARGE     =       8.0001E-02
               GW ET     =           0.0000                 GW ET     =           0.0000
     SURFACE LEAKAGE     =           0.0000       SURFACE LEAKAGE     =           0.0000
           AG WELLS      =           0.0000             AG WELLS      =           0.0000

                TOTAL IN =  2967185920.0000                  TOTAL IN =          16.7897

          OUT:                                     OUT:
          ----                                     ----
             STORAGE     =   676553408.0000               STORAGE     =           6.8575
       CONSTANT HEAD     =           0.0000         CONSTANT HEAD     =           0.0000
     HEAD DEP BOUNDS     =    29993744.0000       HEAD DEP BOUNDS     =           0.2889
      STREAM LEAKAGE     =  1049542720.0000        STREAM LEAKAGE     =           9.6440
        UZF RECHARGE     =           0.0000          UZF RECHARGE     =           0.0000
               GW ET     =    17343536.0000                 GW ET     =           0.0000
     SURFACE LEAKAGE     =           0.0000       SURFACE LEAKAGE     =           0.0000
           AG WELLS      =  1193757312.0000             AG WELLS      =           0.0000

               TOTAL OUT =  2967190528.0000                 TOTAL OUT =          16.7905

                IN - OUT =       -4608.0000                  IN - OUT =      -7.8583E-04

     PERCENT DISCREPANCY =          -0.00         PERCENT DISCREPANCY =          -0.00






         TIME SUMMARY AT END OF TIME STEP   30 IN STRESS PERIOD   40
                    SECONDS     MINUTES      HOURS       DAYS        YEARS
                    -----------------------------------------------------------
   TIME STEP LENGTH  87667.      1461.1      24.352      1.0147     2.77799E-03
 STRESS PERIOD TIME 2.63000E+06  43833.      730.56      30.440     8.33397E-02
         TOTAL TIME 1.02656E+08 1.71093E+06  28515.      1188.1      3.2530    
1
1
                            STRESS PERIOD NO.   41, LENGTH =   2630000.    
                            -----------------------------------------------

                              NUMBER OF TIME STEPS =    30

                               MULTIPLIER FOR DELT =     1.000

                            INITIAL TIME STEP SIZE =   87666.66    

 REUSING NON-PARAMETER GHB CELLS FROM LAST STRESS PERIOD

      2 GHB CELLS

 REUSING STREAM SEGMENT DATA FROM LAST STRESS PERIOD



            AREAL INFILTRATION RATE
 READING ON UNIT   19 WITH FORMAT: (10F4.0)            

            1           2           3           4           5           6           7           8           9          10
 ........................................................................................................................
   1   1.2000E-09   0.000       0.000       0.000       0.000       0.000       0.000       0.000       0.000       0.000    
   2   2.1000E-09  2.0000E-09  8.0000E-10  8.5000E-09   0.000       0.000       0.000       0.000       0.000       0.000    
   3   5.0000E-10  1.1000E-09  8.8000E-09  5.5000E-09   0.000       0.000       0.000       0.000       0.000       0.000    
   4   8.5000E-09  1.1000E-09  1.1000E-09  1.1000E-09  2.0000E-09   0.000       0.000       0.000       0.000       0.000    
   5   8.5000E-09  1.1000E-09  1.1000E-09  1.1000E-09  1.1000E-09   0.000       0.000       0.000       0.000       0.000    
   6   8.5000E-09  5.2000E-09  2.1000E-09  1.1000E-09  1.5000E-09   0.000       0.000       0.000       0.000       0.000    
   7   8.5000E-09  5.2000E-09  2.1000E-09  1.2000E-09  2.0000E-09   0.000       0.000       0.000       0.000       0.000    
   8   5.0000E-10  5.2000E-09  2.1000E-09  1.2000E-09  5.0000E-09   0.000       0.000       0.000       0.000       0.000    
   9   5.0000E-10  5.2000E-09  2.1000E-09  1.2000E-09  5.0000E-09   0.000       0.000       0.000       0.000       0.000    
  10   5.0000E-10  5.2000E-09  2.1000E-09  1.2000E-09  5.8000E-09   0.000       0.000       0.000       0.000       0.000    
  11   1.0000E-10  1.1000E-09  1.1000E-09  1.2000E-09  5.0000E-09   0.000       0.000       0.000       0.000       0.000    
  12   1.1000E-09  1.1000E-09  1.1000E-09  1.1000E-09  2.0000E-09   0.000       0.000       0.000       0.000       0.000    
  13   1.1000E-09  2.2000E-09  2.2000E-09  2.1000E-09  1.0000E-09   0.000       0.000       0.000       0.000       0.000    
  14   2.0000E-10  5.5000E-09  5.5000E-09  5.2000E-09  1.0000E-09   0.000       0.000       0.000       0.000       0.000    
  15    0.000      8.8000E-09  8.8000E-09   0.000       0.000       0.000       0.000       0.000       0.000       0.000    

                  ET RATE =  2.500000E-08

 USING ET EXTINCTION DEPTH FROM PREVIOUS STRESS PERIOD. CURRENT PERIOD IS:      41

 USING EXTINCTION WATER CONTENT FROM PREVIOUS STRESS PERIOD. CURRENT PERIOD IS:      41

 USING AIR ENTRY PRESSURE FROM PREVIOUS STRESS PERIOD. CURRENT PERIOD IS:      41

 USING ROOT PRESSURE HEAD FROM PREVIOUS STRESS PERIOD. CURRENT PERIOD IS:      41

 USING ROOT ACTIVITY FROM PREVIOUS STRESS PERIOD. CURRENT PERIOD IS:      41

 PROCESSING AG STRESS PERIOD DATA

 READING AG STRESS PERIOD DATA

 READING IRRIGATION WELL

 END PROCESSING AG STRESS PERIOD DATA OPTIONS
 
 SOLVING FOR HEAD 
                                                   Max.-Head-Change                         Max.-Flux-Residual
  Residual-Control   Outer-Iter.   Inner-Iter.     Column Row Layer    Maximum-Head-Change  Column Row Layer    Maximum-Flux-Residual          L2-NORM 
          0                 1           2             4    7     1       0.1104906141E-01       4    7    1         0.5780999407E+00      0.1621692410E+01
          0                 2           2             4    7     1      -0.1074774418E-02       4    7    1        -0.5781013034E-01      0.1621711362E+00
          0                 3           1             4    7     1       0.7318813395E-04       4    7    1         0.4046709584E-02      0.1135230223E-01

    ------------------------------------------------
       NWT REQUIRED            3 OUTER ITERATIONS 
       AND A TOTAL OF          5 INNER ITERATIONS.
    ------------------------------------------------

 NO OUTPUT CONTROL FOR STRESS PERIOD   41   TIME STEP    1
 
 SOLVING FOR HEAD 
                                                   Max.-Head-Change                         Max.-Flux-Residual
  Residual-Control   Outer-Iter.   Inner-Iter.     Column Row Layer    Maximum-Head-Change  Column Row Layer    Maximum-Flux-Residual          L2-NORM 
          0                 1           2             4    7     1       0.1091842105E-01       4    7    1         0.5712393250E+00      0.1610004889E+01
          0                 2           2             4    7     1      -0.1133807259E-02       4    7    1        -0.6107389362E-01      0.1641323703E+00
          0                 3           1             3    7     1       0.6090555903E-04       5    7    1         0.3420514429E-02      0.9840882625E-02

    ------------------------------------------------
       NWT REQUIRED            3 OUTER ITERATIONS 
       AND A TOTAL OF          5 INNER ITERATIONS.
    ------------------------------------------------

 NO OUTPUT CONTROL FOR STRESS PERIOD   41   TIME STEP    2
 
 SOLVING FOR HEAD 
                                                   Max.-Head-Change                         Max.-Flux-Residual
  Residual-Control   Outer-Iter.   Inner-Iter.     Column Row Layer    Maximum-Head-Change  Column Row Layer    Maximum-Flux-Residual          L2-NORM 
          0                 1           2             3    7     1       0.9255754999E-02       5    7    1         0.4858324643E+00      0.1396186744E+01
          0                 2           2             3    7     1      -0.9013702650E-03       5    7    1        -0.4858340581E-01      0.1428274598E+00
          0                 3           1             3    7     1       0.6048863410E-04       5    7    1         0.3400838571E-02      0.9762692247E-02

    ------------------------------------------------
       NWT REQUIRED            3 OUTER ITERATIONS 
       AND A TOTAL OF          5 INNER ITERATIONS.
    ------------------------------------------------

 NO OUTPUT CONTROL FOR STRESS PERIOD   41   TIME STEP    3
 
 SOLVING FOR HEAD 
                                                   Max.-Head-Change                         Max.-Flux-Residual
  Residual-Control   Outer-Iter.   Inner-Iter.     Column Row Layer    Maximum-Head-Change  Column Row Layer    Maximum-Flux-Residual          L2-NORM 
          0                 1           2             3    7     1       0.9110981829E-02       5    7    1         0.4784756208E+00      0.1265387471E+01
          0                 2           2             3    7     1      -0.8862509234E-03       5    7    1        -0.4784772172E-01      0.1265464536E+00
          0                 3           1             3    7     1       0.6035048258E-04       5    7    1         0.3349340458E-02      0.8858696565E-02

    ------------------------------------------------
       NWT REQUIRED            3 OUTER ITERATIONS 
       AND A TOTAL OF          5 INNER ITERATIONS.
    ------------------------------------------------

 NO OUTPUT CONTROL FOR STRESS PERIOD   41   TIME STEP    4
 
 SOLVING FOR HEAD 
                                                   Max.-Head-Change                         Max.-Flux-Residual
  Residual-Control   Outer-Iter.   Inner-Iter.     Column Row Layer    Maximum-Head-Change  Column Row Layer    Maximum-Flux-Residual          L2-NORM 
          0                 1           2             3    7     1       0.8971839979E-02       5    7    1         0.4575185463E+00      0.1234200254E+01
          0                 2           2             3    7     1      -0.8727162223E-03       5    7    1        -0.4575202132E-01      0.1234226165E+00
          0                 3           1             3    7     1       0.5942880621E-04       5    7    1         0.3202641294E-02      0.8640026591E-02

    ------------------------------------------------
       NWT REQUIRED            3 OUTER ITERATIONS 
       AND A TOTAL OF          5 INNER ITERATIONS.
    ------------------------------------------------

 NO OUTPUT CONTROL FOR STRESS PERIOD   41   TIME STEP    5
 
 SOLVING FOR HEAD 
                                                   Max.-Head-Change                         Max.-Flux-Residual
  Residual-Control   Outer-Iter.   Inner-Iter.     Column Row Layer    Maximum-Head-Change  Column Row Layer    Maximum-Flux-Residual          L2-NORM 
          0                 1           2             3    7     1       0.8835049756E-02       5    8    1         0.4042884199E+00      0.1137149024E+01
          0                 2           2             3    7     1      -0.8594102534E-03       5    8    1        -0.4042899070E-01      0.1137176602E+00
          0                 3           1             3    7     1       0.5852271750E-04       5    8    1         0.2830029157E-02      0.7960795683E-02

    ------------------------------------------------
       NWT REQUIRED            3 OUTER ITERATIONS 
       AND A TOTAL OF          5 INNER ITERATIONS.
    ------------------------------------------------

 NO OUTPUT CONTROL FOR STRESS PERIOD   41   TIME STEP    6
 
 SOLVING FOR HEAD 
                                                   Max.-Head-Change                         Max.-Flux-Residual
  Residual-Control   Outer-Iter.   Inner-Iter.     Column Row Layer    Maximum-Head-Change  Column Row Layer    Maximum-Flux-Residual          L2-NORM 
          0                 1           2             3    7     1       0.8700529308E-02       5    8    1         0.3800926679E+00      0.1108878596E+01
          0                 2           2             3    7     1      -0.8463251944E-03       5    8    1        -0.3955049576E-01      0.1114282993E+00
          0                 3           1             3    7     1       0.5763153400E-04       6    7    1         0.2080605292E-02      0.7376392231E-02

    ------------------------------------------------
       NWT REQUIRED            3 OUTER ITERATIONS 
       AND A TOTAL OF          5 INNER ITERATIONS.
    ------------------------------------------------

 NO OUTPUT CONTROL FOR STRESS PERIOD   41   TIME STEP    7
 
 SOLVING FOR HEAD 
                                                   Max.-Head-Change                         Max.-Flux-Residual
  Residual-Control   Outer-Iter.   Inner-Iter.     Column Row Layer    Maximum-Head-Change  Column Row Layer    Maximum-Flux-Residual          L2-NORM 
          0                 1           2             3    7     1       0.8568036701E-02       5    8    1         0.3674435898E+00      0.1090563252E+01
          0                 2           2             3    7     1      -0.8334373740E-03       5    8    1        -0.3964521505E-01      0.1100702429E+00
          0                 3           1             3    7     1       0.5675376313E-04       6    7    1         0.2019207961E-02      0.7225035873E-02

    ------------------------------------------------
       NWT REQUIRED            3 OUTER ITERATIONS 
       AND A TOTAL OF          5 INNER ITERATIONS.
    ------------------------------------------------

 NO OUTPUT CONTROL FOR STRESS PERIOD   41   TIME STEP    8
 
 SOLVING FOR HEAD 
                                                   Max.-Head-Change                         Max.-Flux-Residual
  Residual-Control   Outer-Iter.   Inner-Iter.     Column Row Layer    Maximum-Head-Change  Column Row Layer    Maximum-Flux-Residual          L2-NORM 
          0                 1           2             3    7     1       0.8438020720E-02       6    7    1         0.2800694037E+00      0.1022605387E+01
          0                 2           2             3    7     1      -0.8207900861E-03       6    7    1        -0.2800704042E-01      0.1022633871E+00
          0                 3           1             3    7     1       0.5589283168E-04       6    7    1         0.1960492728E-02      0.7158998155E-02

    ------------------------------------------------
       NWT REQUIRED            3 OUTER ITERATIONS 
       AND A TOTAL OF          5 INNER ITERATIONS.
    ------------------------------------------------

 NO OUTPUT CONTROL FOR STRESS PERIOD   41   TIME STEP    9
 
 SOLVING FOR HEAD 
                                                   Max.-Head-Change                         Max.-Flux-Residual
  Residual-Control   Outer-Iter.   Inner-Iter.     Column Row Layer    Maximum-Head-Change  Column Row Layer    Maximum-Flux-Residual          L2-NORM 
          0                 1           2             3    7     1       0.8310207893E-02       6    7    1         0.2718985925E+00      0.9982283486E+00
          0                 2           2             3    7     1      -0.8083573617E-03       6    7    1        -0.2718995386E-01      0.9983430917E-01
          0                 3           1             3    7     1       0.5504620737E-04       6    7    1         0.1903296692E-02      0.6992359582E-02

    ------------------------------------------------
       NWT REQUIRED            3 OUTER ITERATIONS 
       AND A TOTAL OF          5 INNER ITERATIONS.
    ------------------------------------------------

 NO OUTPUT CONTROL FOR STRESS PERIOD   41   TIME STEP   10
 
 SOLVING FOR HEAD 
                                                   Max.-Head-Change                         Max.-Flux-Residual
  Residual-Control   Outer-Iter.   Inner-Iter.     Column Row Layer    Maximum-Head-Change  Column Row Layer    Maximum-Flux-Residual          L2-NORM 
          0                 1           2             3    7     1       0.8184570878E-02       6    7    1         0.2639938119E+00      0.9829992938E+00
          0                 2           2             3    7     1      -0.7961362854E-03       6    7    1        -0.2639947050E-01      0.9831063329E-01
          0                 3           1             3    7     1       0.5421399563E-04       6    7    1         0.1847962882E-02      0.6885375087E-02

    ------------------------------------------------
       NWT REQUIRED            3 OUTER ITERATIONS 
       AND A TOTAL OF          5 INNER ITERATIONS.
    ------------------------------------------------

 NO OUTPUT CONTROL FOR STRESS PERIOD   41   TIME STEP   11
 
 SOLVING FOR HEAD 
                                                   Max.-Head-Change                         Max.-Flux-Residual
  Residual-Control   Outer-Iter.   Inner-Iter.     Column Row Layer    Maximum-Head-Change  Column Row Layer    Maximum-Flux-Residual          L2-NORM 
          0                 1           2             3    7     1       0.8061082973E-02       4    9    1         0.2580028236E+00      0.9675371532E+00
          0                 2           2             3    7     1      -0.7841242599E-03       4    9    1        -0.2580032248E-01      0.9676328808E-01
          0                 3           1             3    7     1       0.5339601978E-04       4    9    1         0.1806022968E-02      0.6776391882E-02

    ------------------------------------------------
       NWT REQUIRED            3 OUTER ITERATIONS 
       AND A TOTAL OF          5 INNER ITERATIONS.
    ------------------------------------------------

 NO OUTPUT CONTROL FOR STRESS PERIOD   41   TIME STEP   12
 
 SOLVING FOR HEAD 
                                                   Max.-Head-Change                         Max.-Flux-Residual
  Residual-Control   Outer-Iter.   Inner-Iter.     Column Row Layer    Maximum-Head-Change  Column Row Layer    Maximum-Flux-Residual          L2-NORM 
          0                 1           2             3    7     1       0.7939718410E-02       4    9    1         0.2523437442E+00      0.9523199182E+00
          0                 2           2             3    7     1      -0.7723187782E-03       4    9    1        -0.2523441310E-01      0.9524057726E-01
          0                 3           1             3    7     1       0.5259210837E-04       4    9    1         0.1766409307E-02      0.6669524149E-02

    ------------------------------------------------
       NWT REQUIRED            3 OUTER ITERATIONS 
       AND A TOTAL OF          5 INNER ITERATIONS.
    ------------------------------------------------

 NO OUTPUT CONTROL FOR STRESS PERIOD   41   TIME STEP   13
 
 SOLVING FOR HEAD 
                                                   Max.-Head-Change                         Max.-Flux-Residual
  Residual-Control   Outer-Iter.   Inner-Iter.     Column Row Layer    Maximum-Head-Change  Column Row Layer    Maximum-Flux-Residual          L2-NORM 
          0                 1           2             3    7     1       0.7820451553E-02       4    9    1         0.2468586228E+00      0.9375508215E+00
          0                 2           2             3    7     1      -0.7607173467E-03       4    9    1        -0.2468589954E-01      0.9376273065E-01
          0                 3           1             3    7     1       0.5180209216E-04       4    9    1         0.1728013363E-02      0.6565672521E-02

    ------------------------------------------------
       NWT REQUIRED            3 OUTER ITERATIONS 
       AND A TOTAL OF          5 INNER ITERATIONS.
    ------------------------------------------------

 NO OUTPUT CONTROL FOR STRESS PERIOD   41   TIME STEP   14
 
 SOLVING FOR HEAD 
                                                   Max.-Head-Change                         Max.-Flux-Residual
  Residual-Control   Outer-Iter.   Inner-Iter.     Column Row Layer    Maximum-Head-Change  Column Row Layer    Maximum-Flux-Residual          L2-NORM 
          0                 1           2             3    7     1       0.7703257379E-02       4    9    1         0.2415433928E+00      0.9233367922E+00
          0                 2           2             3    7     1      -0.7493175315E-03       4    9    1        -0.2415437517E-01      0.9234065959E-01
          0                 3           1             3    7     1       0.5102580525E-04       4    9    1         0.1690806655E-02      0.6465779742E-02

    ------------------------------------------------
       NWT REQUIRED            3 OUTER ITERATIONS 
       AND A TOTAL OF          5 INNER ITERATIONS.
    ------------------------------------------------

 NO OUTPUT CONTROL FOR STRESS PERIOD   41   TIME STEP   15
 
 SOLVING FOR HEAD 
                                                   Max.-Head-Change                         Max.-Flux-Residual
  Residual-Control   Outer-Iter.   Inner-Iter.     Column Row Layer    Maximum-Head-Change  Column Row Layer    Maximum-Flux-Residual          L2-NORM 
          0                 1           2             3    7     1       0.7588351647E-02       4    9    1         0.2364004637E+00      0.9097277893E+00
          0                 2           2             3    7     1      -0.7381403207E-03       4    9    1        -0.2364008094E-01      0.9097916936E-01
          0                 3           1             3    7     1       0.5026467761E-04       4    9    1         0.1654806052E-02      0.6370308036E-02

    ------------------------------------------------
       NWT REQUIRED            3 OUTER ITERATIONS 
       AND A TOTAL OF          5 INNER ITERATIONS.
    ------------------------------------------------

 NO OUTPUT CONTROL FOR STRESS PERIOD   41   TIME STEP   16
 
 SOLVING FOR HEAD 
                                                   Max.-Head-Change                         Max.-Flux-Residual
  Residual-Control   Outer-Iter.   Inner-Iter.     Column Row Layer    Maximum-Head-Change  Column Row Layer    Maximum-Flux-Residual          L2-NORM 
          0                 1           2             3    7     1       0.7475460974E-02       4    9    1         0.2314194822E+00      0.8969531218E+00
          0                 2           2             3    7     1      -0.7271591203E-03       4    9    1        -0.2314198149E-01      0.8970284583E-01
          0                 3           1             3    7     1       0.4951689717E-04       4    9    1         0.1619939094E-02      0.6282169085E-02

    ------------------------------------------------
       NWT REQUIRED            3 OUTER ITERATIONS 
       AND A TOTAL OF          5 INNER ITERATIONS.
    ------------------------------------------------

 NO OUTPUT CONTROL FOR STRESS PERIOD   41   TIME STEP   17
 
 SOLVING FOR HEAD 
                                                   Max.-Head-Change                         Max.-Flux-Residual
  Residual-Control   Outer-Iter.   Inner-Iter.     Column Row Layer    Maximum-Head-Change  Column Row Layer    Maximum-Flux-Residual          L2-NORM 
          0                 1           2             3    7     1       0.7364800091E-02       4    9    1         0.2266031872E+00      0.8848153891E+00
          0                 2           2             3    7     1      -0.7163948189E-03       4    9    1        -0.2266035074E-01      0.8849149488E-01
          0                 3           1             3    7     1       0.4878388715E-04       4    9    1         0.1586224932E-02      0.6199423378E-02

    ------------------------------------------------
       NWT REQUIRED            3 OUTER ITERATIONS 
       AND A TOTAL OF          5 INNER ITERATIONS.
    ------------------------------------------------

 NO OUTPUT CONTROL FOR STRESS PERIOD   41   TIME STEP   18
 
 SOLVING FOR HEAD 
                                                   Max.-Head-Change                         Max.-Flux-Residual
  Residual-Control   Outer-Iter.   Inner-Iter.     Column Row Layer    Maximum-Head-Change  Column Row Layer    Maximum-Flux-Residual          L2-NORM 
          0                 1           2             3    7     1       0.7255848954E-02       4    9    1         0.2219477030E+00      0.8729257334E+00
          0                 2           2             3    7     1      -0.7057968293E-03       4    9    1        -0.2219480112E-01      0.8730134944E-01
          0                 3           1             3    7     1       0.4806220183E-04       4    9    1         0.1553636451E-02      0.6115225962E-02

    ------------------------------------------------
       NWT REQUIRED            3 OUTER ITERATIONS 
       AND A TOTAL OF          5 INNER ITERATIONS.
    ------------------------------------------------

 NO OUTPUT CONTROL FOR STRESS PERIOD   41   TIME STEP   19
 
 SOLVING FOR HEAD 
                                                   Max.-Head-Change                         Max.-Flux-Residual
  Residual-Control   Outer-Iter.   Inner-Iter.     Column Row Layer    Maximum-Head-Change  Column Row Layer    Maximum-Flux-Residual          L2-NORM 
          0                 1           2             3    7     1       0.7149073208E-02       4    9    1         0.2174424510E+00      0.8615998869E+00
          0                 2           2             3    7     1      -0.6954104464E-03       4    9    1        -0.2174427478E-01      0.8616773881E-01
          0                 3           1             3    7     1       0.4735492648E-04       4    9    1         0.1522099609E-02      0.6035154305E-02

    ------------------------------------------------
       NWT REQUIRED            3 OUTER ITERATIONS 
       AND A TOTAL OF          5 INNER ITERATIONS.
    ------------------------------------------------

 NO OUTPUT CONTROL FOR STRESS PERIOD   41   TIME STEP   20
 
 SOLVING FOR HEAD 
                                                   Max.-Head-Change                         Max.-Flux-Residual
  Residual-Control   Outer-Iter.   Inner-Iter.     Column Row Layer    Maximum-Head-Change  Column Row Layer    Maximum-Flux-Residual          L2-NORM 
          0                 1           2             3    7     1       0.7044435702E-02       4    9    1         0.2130901496E+00      0.8508142121E+00
          0                 2           2             3    7     1      -0.6852320567E-03       4    9    1        -0.2130904352E-01      0.8508831510E-01
          0                 3           1             3    7     1       0.4666181495E-04       4    9    1         0.1491633421E-02      0.5959097520E-02

    ------------------------------------------------
       NWT REQUIRED            3 OUTER ITERATIONS 
       AND A TOTAL OF          5 INNER ITERATIONS.
    ------------------------------------------------

 NO OUTPUT CONTROL FOR STRESS PERIOD   41   TIME STEP   21
 
 SOLVING FOR HEAD 
                                                   Max.-Head-Change                         Max.-Flux-Residual
  Residual-Control   Outer-Iter.   Inner-Iter.     Column Row Layer    Maximum-Head-Change  Column Row Layer    Maximum-Flux-Residual          L2-NORM 
          0                 1           2             3    7     1       0.6941659542E-02       4    9    1         0.2088866128E+00      0.8405352442E+00
          0                 2           2             3    7     1      -0.6752347259E-03       4    9    1        -0.2088868878E-01      0.8405966166E-01
          0                 3           1             3    7     1       0.4598103281E-04       4    9    1         0.1462208594E-02      0.5886610171E-02

    ------------------------------------------------
       NWT REQUIRED            3 OUTER ITERATIONS 
       AND A TOTAL OF          5 INNER ITERATIONS.
    ------------------------------------------------

 NO OUTPUT CONTROL FOR STRESS PERIOD   41   TIME STEP   22
 
 SOLVING FOR HEAD 
                                                   Max.-Head-Change                         Max.-Flux-Residual
  Residual-Control   Outer-Iter.   Inner-Iter.     Column Row Layer    Maximum-Head-Change  Column Row Layer    Maximum-Flux-Residual          L2-NORM 
          0                 1           2             3    7     1       0.6840715324E-02       4    9    1         0.2048276349E+00      0.8307348191E+00
          0                 2           2             3    7     1      -0.6654155934E-03       4    9    1        -0.2048278994E-01      0.8308004430E-01
          0                 3           1             3    7     1       0.4531238478E-04       4    9    1         0.1433795662E-02      0.5816665116E-02

    ------------------------------------------------
       NWT REQUIRED            3 OUTER ITERATIONS 
       AND A TOTAL OF          5 INNER ITERATIONS.
    ------------------------------------------------

 NO OUTPUT CONTROL FOR STRESS PERIOD   41   TIME STEP   23
 
 SOLVING FOR HEAD 
                                                   Max.-Head-Change                         Max.-Flux-Residual
  Residual-Control   Outer-Iter.   Inner-Iter.     Column Row Layer    Maximum-Head-Change  Column Row Layer    Maximum-Flux-Residual          L2-NORM 
          0                 1           2             3    7     1       0.6741816416E-02       4    9    1         0.2009088112E+00      0.8213887276E+00
          0                 2           2             3    7     1      -0.6557954149E-03       4    9    1        -0.2009090660E-01      0.8214379314E-01
          0                 3           1             3    7     1       0.4465728595E-04       4    9    1         0.1406363826E-02      0.5751878634E-02

    ------------------------------------------------
       NWT REQUIRED            3 OUTER ITERATIONS 
       AND A TOTAL OF          5 INNER ITERATIONS.
    ------------------------------------------------

 NO OUTPUT CONTROL FOR STRESS PERIOD   41   TIME STEP   24
 
 SOLVING FOR HEAD 
                                                   Max.-Head-Change                         Max.-Flux-Residual
  Residual-Control   Outer-Iter.   Inner-Iter.     Column Row Layer    Maximum-Head-Change  Column Row Layer    Maximum-Flux-Residual          L2-NORM 
          0                 1           2             3    7     1       0.6644926089E-02       4    9    1         0.1971194881E+00      0.8124668344E+00
          0                 2           2             3    7     1      -0.6463706161E-03       4    9    1        -0.1971197335E-01      0.8125114119E-01
          0                 3           1             3    7     1       0.4401549087E-04       4    9    1         0.1379838488E-02      0.5689058845E-02

    ------------------------------------------------
       NWT REQUIRED            3 OUTER ITERATIONS 
       AND A TOTAL OF          5 INNER ITERATIONS.
    ------------------------------------------------

 NO OUTPUT CONTROL FOR STRESS PERIOD   41   TIME STEP   25
 
 SOLVING FOR HEAD 
                                                   Max.-Head-Change                         Max.-Flux-Residual
  Residual-Control   Outer-Iter.   Inner-Iter.     Column Row Layer    Maximum-Head-Change  Column Row Layer    Maximum-Flux-Residual          L2-NORM 
          0                 1           2             3    7     1       0.6549766513E-02       4    9    1         0.1934685720E+00      0.8039379867E+00
          0                 2           2             3    7     1      -0.6371141731E-03       4    9    1        -0.1934688084E-01      0.8039786728E-01
          0                 3           1             3    7     1       0.4338516025E-04       4    9    1         0.1354282026E-02      0.5629236910E-02

    ------------------------------------------------
       NWT REQUIRED            3 OUTER ITERATIONS 
       AND A TOTAL OF          5 INNER ITERATIONS.
    ------------------------------------------------

 NO OUTPUT CONTROL FOR STRESS PERIOD   41   TIME STEP   26
 
 SOLVING FOR HEAD 
                                                   Max.-Head-Change                         Max.-Flux-Residual
  Residual-Control   Outer-Iter.   Inner-Iter.     Column Row Layer    Maximum-Head-Change  Column Row Layer    Maximum-Flux-Residual          L2-NORM 
          0                 1           2             3    7     1       0.6456305354E-02       4    9    1         0.1899387400E+00      0.7957817845E+00
          0                 2           2             3    7     1      -0.6280229400E-03       4    9    1        -0.1899389677E-01      0.7958186370E-01
          0                 3           1             3    7     1       0.4276607989E-04       4    9    1         0.1329573140E-02      0.5571866101E-02

    ------------------------------------------------
       NWT REQUIRED            3 OUTER ITERATIONS 
       AND A TOTAL OF          5 INNER ITERATIONS.
    ------------------------------------------------

 NO OUTPUT CONTROL FOR STRESS PERIOD   41   TIME STEP   27
 
 SOLVING FOR HEAD 
                                                   Max.-Head-Change                         Max.-Flux-Residual
  Residual-Control   Outer-Iter.   Inner-Iter.     Column Row Layer    Maximum-Head-Change  Column Row Layer    Maximum-Flux-Residual          L2-NORM 
          0                 1           2             3    7     1       0.6364998621E-02       4    9    1         0.1865386950E+00      0.7879940030E+00
          0                 2           2             3    7     1      -0.6191412740E-03       4    9    1        -0.1865389145E-01      0.7879799335E-01
          0                 3           1             3    7     1       0.4216127081E-04       4    9    1         0.1305772749E-02      0.5516603053E-02

    ------------------------------------------------
       NWT REQUIRED            3 OUTER ITERATIONS 
       AND A TOTAL OF          5 INNER ITERATIONS.
    ------------------------------------------------

 NO OUTPUT CONTROL FOR STRESS PERIOD   41   TIME STEP   28
 
 SOLVING FOR HEAD 
                                                   Max.-Head-Change                         Max.-Flux-Residual
  Residual-Control   Outer-Iter.   Inner-Iter.     Column Row Layer    Maximum-Head-Change  Column Row Layer    Maximum-Flux-Residual          L2-NORM 
          0                 1           2             3    7     1       0.6275074979E-02       4    9    1         0.1832511489E+00      0.7805104418E+00
          0                 2           2             3    7     1      -0.6103941456E-03       4    9    1        -0.1832513603E-01      0.7805442283E-01
          0                 3           1             3    7     1       0.4156562300E-04       4    9    1         0.1282759879E-02      0.5465012835E-02

    ------------------------------------------------
       NWT REQUIRED            3 OUTER ITERATIONS 
       AND A TOTAL OF          5 INNER ITERATIONS.
    ------------------------------------------------

 NO OUTPUT CONTROL FOR STRESS PERIOD   41   TIME STEP   29
 
 SOLVING FOR HEAD 
                                                   Max.-Head-Change                         Max.-Flux-Residual
  Residual-Control   Outer-Iter.   Inner-Iter.     Column Row Layer    Maximum-Head-Change  Column Row Layer    Maximum-Flux-Residual          L2-NORM 
          0                 1           2             3    7     1       0.6187237167E-02       4    9    1         0.1800851569E+00      0.7733521253E+00
          0                 2           2             3    7     1      -0.6020044949E-03       4    9    1        -0.1800853611E-01      0.7733314272E-01
          0                 3           1             3    7     1       0.4114469722E-04       4    9    1         0.1260597878E-02      0.5414642518E-02

    ------------------------------------------------
       NWT REQUIRED            3 OUTER ITERATIONS 
       AND A TOTAL OF          5 INNER ITERATIONS.
    ------------------------------------------------

 NO OUTPUT CONTROL FOR STRESS PERIOD   41   TIME STEP   30



 STREAM LISTING     PERIOD     41   STEP       30

 LAYER ROW COL. STREAM  RCH.  FLOW INTO     FLOW TO   FLOW OUT OF   OVRLND.     DIRECT     STREAM       STREAM     STREAM     STREAM   STREAMBED  STREAMBED
                SEG.NO.  NO.  STRM. RCH.    AQUIFER    STRM. RCH.    RUNOFF     PRECIP       ET          HEAD       DEPTH      WIDTH   CONDCTNC.   GRADIENT

   1    1    1     1     1    1.9000E+01  2.1427E-01   1.8786E+01  0.000E+00  0.000E+00  0.000E+00  1.09413E+03  1.082E+00  1.166E+01  5.249E-02  1.361E+00
   1    2    2     1     2    1.8786E+01  3.3054E-01   1.8455E+01  0.000E+00  0.000E+00  0.000E+00  1.08914E+03  1.077E+00  1.158E+01  8.107E-02  1.359E+00
   1    3    3     1     3    1.8455E+01  2.8064E-01   1.8175E+01  0.000E+00  0.000E+00  0.000E+00  1.08349E+03  1.072E+00  1.149E+01  6.892E-02  1.357E+00
   1    3    4     1     4    1.8175E+01  2.5740E-01   1.7917E+01  0.000E+00  0.000E+00  0.000E+00  1.07848E+03  1.068E+00  1.140E+01  6.328E-02  1.356E+00
   1    4    5     2     1    1.5917E+01  3.0542E-01   1.5612E+01  0.000E+00  0.000E+00  0.000E+00  1.07285E+03  9.157E-01  1.200E+01  7.800E-02  1.305E+00
   1    5    6     2     2    1.5612E+01  2.3438E-01   1.5377E+01  0.000E+00  0.000E+00  0.000E+00  1.06742E+03  9.063E-01  1.200E+01  6.000E-02  1.302E+00
   1    6    6     2     3    1.5377E+01  2.3388E-01   1.5143E+01  0.000E+00  0.000E+00  0.000E+00  1.06269E+03  8.980E-01  1.200E+01  6.000E-02  1.299E+00
   1    7    6     2     4    1.5143E+01  2.3338E-01   1.4910E+01  0.000E+00  0.000E+00  0.000E+00  1.05797E+03  8.897E-01  1.200E+01  6.000E-02  1.297E+00
   1    8    6     2     5    1.4910E+01  2.3289E-01   1.4677E+01  0.000E+00  0.000E+00  0.000E+00  1.05324E+03  8.814E-01  1.200E+01  6.000E-02  1.294E+00
   1    3    5     3     1    2.0000E+00  2.8252E-01   1.7175E+00  0.000E+00  0.000E+00  0.000E+00  1.07555E+03  1.909E+00  9.636E+00  7.227E-02  1.955E+00
   1    3    6     3     2    1.7175E+00  2.4905E-01   1.4684E+00  0.000E+00  0.000E+00  0.000E+00  1.07264E+03  1.727E+00  8.909E+00  6.682E-02  1.864E+00
   1    3    7     3     3    1.4684E+00  1.9718E-01   1.2712E+00  0.000E+00  0.000E+00  0.000E+00  1.06987E+03  1.555E+00  8.218E+00  5.547E-02  1.777E+00
   1    4    8     3     4    1.2712E+00  2.2567E-01   1.0456E+00  0.000E+00  0.000E+00  0.000E+00  1.06682E+03  1.364E+00  7.455E+00  6.709E-02  1.682E+00
   1    5    8     3     5    1.0456E+00  1.5790E-01   8.8768E-01  0.000E+00  0.000E+00  0.000E+00  1.06362E+03  1.164E+00  6.655E+00  4.991E-02  1.582E+00
   1    6    8     3     6    8.8768E-01  5.5980E-02   8.3170E-01  0.000E+00  0.000E+00  0.000E+00  1.06158E+03  1.036E+00  6.145E+00  1.844E-02  1.518E+00
   1    5   10     4     1    1.0000E+01  9.0919E-02   9.9091E+00  0.000E+00  0.000E+00  0.000E+00  1.07836E+03  6.368E-01  1.000E+01  2.500E-02  1.212E+00
   1    5    9     4     2    9.9091E+00  1.8158E-01   9.7275E+00  0.000E+00  0.000E+00  0.000E+00  1.07154E+03  6.315E-01  1.000E+01  5.000E-02  1.211E+00
   1    6    8     4     3    9.7275E+00  1.2689E-01   9.6006E+00  0.000E+00  0.000E+00  0.000E+00  1.06381E+03  6.256E-01  1.000E+01  3.500E-02  1.209E+00
   1    6    8     5     1    1.0432E+01  2.2686E-01   1.0205E+01  0.000E+00  0.000E+00  0.000E+00  1.05868E+03  6.790E-01  1.542E+01  6.166E-02  1.226E+00
   1    7    7     5     2    1.0205E+01  2.7894E-01   9.9265E+00  0.000E+00  0.000E+00  0.000E+00  1.05417E+03  6.732E-01  1.519E+01  7.594E-02  1.224E+00
   1    8    7     5     3    9.9265E+00  1.9221E-01   9.7343E+00  0.000E+00  0.000E+00  0.000E+00  1.04992E+03  6.676E-01  1.497E+01  5.241E-02  1.223E+00
   1    8    6     5     4    9.7343E+00  1.3577E-01   9.5985E+00  0.000E+00  0.000E+00  0.000E+00  1.04691E+03  6.637E-01  1.482E+01  3.706E-02  1.221E+00
   1    9    6     6     1    2.4276E+01  2.5176E-01   2.4024E+01  0.000E+00  0.000E+00  0.000E+00  1.04392E+03  1.196E+00  1.200E+01  6.000E-02  1.399E+00
   1   10    7     6     2    2.4024E+01  2.5131E-01   2.3773E+01  0.000E+00  0.000E+00  0.000E+00  1.03937E+03  1.188E+00  1.200E+01  6.000E-02  1.396E+00
   1   11    7     6     3    2.3773E+01  2.5086E-01   2.3522E+01  0.000E+00  0.000E+00  0.000E+00  1.03482E+03  1.181E+00  1.200E+01  6.000E-02  1.394E+00
   1   12    7     6     4    2.3522E+01  2.5041E-01   2.3271E+01  0.000E+00  0.000E+00  0.000E+00  1.03026E+03  1.173E+00  1.200E+01  6.000E-02  1.391E+00
   1   13    7     6     5    2.3271E+01  1.0338E-02   2.3261E+01  0.000E+00  0.000E+00  0.000E+00  1.02708E+03  1.170E+00  1.200E+01  2.400E-02  1.436E-01
   1   14    9     7     1    1.5000E+02  1.3668E+00   1.4863E+02  0.000E+00  0.000E+00  0.000E+00  1.03987E+03  2.288E+00  5.529E+01  5.593E-01  8.146E-01
   1   13    8     7     2    1.4863E+02  1.9592E+00   1.4667E+02  0.000E+00  0.000E+00  0.000E+00  1.03478E+03  2.279E+00  5.525E+01  6.147E-01  1.062E+00
   1   13    7     7     3    1.4667E+02  1.6978E+00   1.4498E+02  0.000E+00  0.000E+00  0.000E+00  1.02969E+03  2.269E+00  5.521E+01  5.584E-01  1.014E+00
   1   13    6     8     1    1.6824E+02  1.1351E+00   1.6710E+02  0.000E+00  0.000E+00  0.000E+00  1.02481E+03  2.937E+00  4.259E+01  4.340E-01  8.719E-01
   1   13    5     8     2    1.6710E+02  3.7384E-01   1.6673E+02  0.000E+00  0.000E+00  0.000E+00  1.01856E+03  2.932E+00  4.251E+01  4.332E-01  2.876E-01
   1   13    4     8     3    1.6673E+02 -1.7864E+00   1.6851E+02  0.000E+00  0.000E+00  0.000E+00  1.01231E+03  2.937E+00  4.258E+01  4.339E+00 -1.372E-01
   1   13    3     8     4    1.6851E+02 -3.3356E+00   1.7185E+02  0.000E+00  0.000E+00  0.000E+00  1.00608E+03  2.953E+00  4.282E+01  4.364E+00 -2.548E-01
   1   13    2     8     5    1.7185E+02 -2.4999E+00   1.7435E+02  0.000E+00  0.000E+00  0.000E+00  9.99847E+02  2.972E+00  4.310E+01  4.392E+00 -1.897E-01
   1   13    1     8     6    1.7435E+02 -1.9625E+00   1.7631E+02  0.000E+00  0.000E+00  0.000E+00  9.94862E+02  2.987E+00  4.331E+01  2.648E+00 -2.471E-01





UNSATURATED ZONE PACKAGE VOLUMETRIC BUDGET FOR  TIME STEP    30 STRESS PERIOD   41
  ------------------------------------------------------------------------------



     CUMULATIVE VOLUMES      L**3       RATES FOR THIS TIME STEP      L**3/T
     ------------------                 ------------------------

           IN:                                      IN:
           ---                                      ---
        INFILTRATION =  1665370077.7603          INFILTRATION =           7.8526

          OUT:                                     OUT:
          ----                                     ----
              UZF ET =  1538847349.9554                UZF ET =           7.8575
        UZF RECHARGE =     1307077.0869          UZF RECHARGE =           0.0276

            IN - OUT =   125215650.7179              IN - OUT =      -3.2481E-02

          STORAGE:                                 STORAGE:
          --------                                 --------
      STORAGE CHANGE =   125216579.3077        STORAGE CHANGE =      -3.2481E-02

 PERCENT DISCREPANCY IS DIFFERENCE BETWEEN IN-OUT MINUS CHANGE IN STORAGE
 DIVIDED BY THE AVERAGE OF IN AND OUT TIMES 100

 PERCENT DISCREPANCY =          -0.00     PERCENT DISCREPANCY =           0.00






1
  VOLUMETRIC BUDGET FOR AGRICULTURAL FIELDS AT TIME STEP   30, STRESS PERIOD  41
  ------------------------------------------------------------------------------

     CUMULATIVE VOLUMES      L**3       RATES FOR THIS TIME STEP      L**3/T
     ------------------                 ------------------------

           IN:                                      IN:
           ---                                      ---
               AG WELLS  =  1201627904.0000                 AG WELLS  =           3.4451
      DIVERSION SEGMENTS =           0.0000        DIVERSION SEGMENTS =           0.0000
           GW IRRIGATION =           0.0000             GW IRRIGATION =           0.0000
           SW IRRIGATION =           0.0000             SW IRRIGATION =           0.0000
        SYSTEM LOSSES GW =           0.0000          SYSTEM LOSSES GW =           0.0000
        SYSTEM LOSSES SW =           0.0000          SYSTEM LOSSES SW =           0.0000

                TOTAL IN =  1201627904.0000                  TOTAL IN =           3.4451

          OUT:                                     OUT:
          ----                                     ----
               AG WELLS  =           0.0000                 AG WELLS  =           0.0000
      DIVERSION SEGMENTS =           0.0000        DIVERSION SEGMENTS =           0.0000
           GW IRRIGATION =  1201627904.0000             GW IRRIGATION =           3.4451
           SW IRRIGATION =           0.0000             SW IRRIGATION =           0.0000
        SYSTEM LOSSES GW =           0.0000          SYSTEM LOSSES GW =           0.0000
        SYSTEM LOSSES SW =           0.0000          SYSTEM LOSSES SW =           0.0000

               TOTAL OUT =  1201627904.0000                 TOTAL OUT =           3.4451

                IN - OUT =           0.0000                  IN - OUT =           0.0000

     PERCENT DISCREPANCY =           0.00         PERCENT DISCREPANCY =           0.00



1
  VOLUMETRIC BUDGET FOR ENTIRE MODEL AT END OF TIME STEP   30, STRESS PERIOD  41
  ------------------------------------------------------------------------------

     CUMULATIVE VOLUMES      L**3       RATES FOR THIS TIME STEP      L**3/T
     ------------------                 ------------------------

           IN:                                      IN:
           ---                                      ---
             STORAGE     =  1690916224.0000               STORAGE     =           3.5972
       CONSTANT HEAD     =           0.0000         CONSTANT HEAD     =           0.0000
     HEAD DEP BOUNDS     =    30112852.0000       HEAD DEP BOUNDS     =           0.2879
      STREAM LEAKAGE     =  1288501632.0000        STREAM LEAKAGE     =          12.2717
        UZF RECHARGE     =     1307076.7500          UZF RECHARGE     =       2.7557E-02
               GW ET     =           0.0000                 GW ET     =           0.0000
     SURFACE LEAKAGE     =           0.0000       SURFACE LEAKAGE     =           0.0000
           AG WELLS      =           0.0000             AG WELLS      =           0.0000

                TOTAL IN =  3010838016.0000                  TOTAL IN =          16.1844

          OUT:                                     OUT:
          ----                                     ----
             STORAGE     =   686280768.0000               STORAGE     =           2.8657
       CONSTANT HEAD     =           0.0000         CONSTANT HEAD     =           0.0000
     HEAD DEP BOUNDS     =    30753604.0000       HEAD DEP BOUNDS     =           0.2889
      STREAM LEAKAGE     =  1074836736.0000        STREAM LEAKAGE     =           9.5845
        UZF RECHARGE     =           0.0000          UZF RECHARGE     =           0.0000
               GW ET     =    17343536.0000                 GW ET     =           0.0000
     SURFACE LEAKAGE     =           0.0000       SURFACE LEAKAGE     =           0.0000
           AG WELLS      =  1201627904.0000             AG WELLS      =           3.4451

               TOTAL OUT =  3010842624.0000                 TOTAL OUT =          16.1842

                IN - OUT =       -4608.0000                  IN - OUT =       1.9264E-04

     PERCENT DISCREPANCY =          -0.00         PERCENT DISCREPANCY =           0.00






         TIME SUMMARY AT END OF TIME STEP   30 IN STRESS PERIOD   41
                    SECONDS     MINUTES      HOURS       DAYS        YEARS
                    -----------------------------------------------------------
   TIME STEP LENGTH  87667.      1461.1      24.352      1.0147     2.77799E-03
 STRESS PERIOD TIME 2.63000E+06  43833.      730.56      30.440     8.33397E-02
         TOTAL TIME 1.05286E+08 1.75476E+06  29246.      1218.6      3.3363    
1
1
                            STRESS PERIOD NO.   42, LENGTH =   2630000.    
                            -----------------------------------------------

                              NUMBER OF TIME STEPS =    30

                               MULTIPLIER FOR DELT =     1.000

                            INITIAL TIME STEP SIZE =   87666.66    

 REUSING NON-PARAMETER GHB CELLS FROM LAST STRESS PERIOD

      2 GHB CELLS

 REUSING STREAM SEGMENT DATA FROM LAST STRESS PERIOD



            AREAL INFILTRATION RATE
 READING ON UNIT   19 WITH FORMAT: (10F4.0)            

            1           2           3           4           5           6           7           8           9          10
 ........................................................................................................................
   1   1.2000E-09   0.000       0.000       0.000       0.000       0.000       0.000       0.000       0.000       0.000    
   2   2.1000E-09  2.0000E-09  8.0000E-10  8.5000E-09   0.000       0.000       0.000       0.000       0.000       0.000    
   3   5.0000E-10  1.1000E-09  8.8000E-09  5.5000E-09   0.000       0.000       0.000       0.000       0.000       0.000    
   4   8.5000E-09  1.1000E-09  1.1000E-09  1.1000E-09  2.0000E-09   0.000       0.000       0.000       0.000       0.000    
   5   8.5000E-09  1.1000E-09  1.1000E-09  1.1000E-09  1.1000E-09   0.000       0.000       0.000       0.000       0.000    
   6   8.5000E-09  5.2000E-09  2.1000E-09  1.1000E-09  1.5000E-09   0.000       0.000       0.000       0.000       0.000    
   7   8.5000E-09  5.2000E-09  2.1000E-09  1.2000E-09  2.0000E-09   0.000       0.000       0.000       0.000       0.000    
   8   5.0000E-10  5.2000E-09  2.1000E-09  1.2000E-09  5.0000E-09   0.000       0.000       0.000       0.000       0.000    
   9   5.0000E-10  5.2000E-09  2.1000E-09  1.2000E-09  5.0000E-09   0.000       0.000       0.000       0.000       0.000    
  10   5.0000E-10  5.2000E-09  2.1000E-09  1.2000E-09  5.8000E-09   0.000       0.000       0.000       0.000       0.000    
  11   1.0000E-10  1.1000E-09  1.1000E-09  1.2000E-09  5.0000E-09   0.000       0.000       0.000       0.000       0.000    
  12   1.1000E-09  1.1000E-09  1.1000E-09  1.1000E-09  2.0000E-09   0.000       0.000       0.000       0.000       0.000    
  13   1.1000E-09  2.2000E-09  2.2000E-09  2.1000E-09  1.0000E-09   0.000       0.000       0.000       0.000       0.000    
  14   2.0000E-10  5.5000E-09  5.5000E-09  5.2000E-09  1.0000E-09   0.000       0.000       0.000       0.000       0.000    
  15    0.000      8.8000E-09  8.8000E-09   0.000       0.000       0.000       0.000       0.000       0.000       0.000    

                  ET RATE =  5.000000E-08

 USING ET EXTINCTION DEPTH FROM PREVIOUS STRESS PERIOD. CURRENT PERIOD IS:      42

 USING EXTINCTION WATER CONTENT FROM PREVIOUS STRESS PERIOD. CURRENT PERIOD IS:      42

 USING AIR ENTRY PRESSURE FROM PREVIOUS STRESS PERIOD. CURRENT PERIOD IS:      42

 USING ROOT PRESSURE HEAD FROM PREVIOUS STRESS PERIOD. CURRENT PERIOD IS:      42

 USING ROOT ACTIVITY FROM PREVIOUS STRESS PERIOD. CURRENT PERIOD IS:      42

 PROCESSING AG STRESS PERIOD DATA

 READING AG STRESS PERIOD DATA

 READING IRRIGATION WELL

 END PROCESSING AG STRESS PERIOD DATA OPTIONS
 
 SOLVING FOR HEAD 
                                                   Max.-Head-Change                         Max.-Flux-Residual
  Residual-Control   Outer-Iter.   Inner-Iter.     Column Row Layer    Maximum-Head-Change  Column Row Layer    Maximum-Flux-Residual          L2-NORM 
          0                 1           2             5    7     1      -0.1174986777E-01       5    7    1        -0.6229315007E+00      0.1660993080E+01
          0                 2           2             5    7     1       0.1142797241E-02       5    7    1         0.6229316238E-01      0.1658325098E+00
          0                 3           1             5    7     1      -0.7782028583E-04       5    7    1        -0.4360523161E-02      0.1160871013E-01

    ------------------------------------------------
       NWT REQUIRED            3 OUTER ITERATIONS 
       AND A TOTAL OF          5 INNER ITERATIONS.
    ------------------------------------------------

 NO OUTPUT CONTROL FOR STRESS PERIOD   42   TIME STEP    1
 
 SOLVING FOR HEAD 
                                                   Max.-Head-Change                         Max.-Flux-Residual
  Residual-Control   Outer-Iter.   Inner-Iter.     Column Row Layer    Maximum-Head-Change  Column Row Layer    Maximum-Flux-Residual          L2-NORM 
          0                 1           2             4    7     1      -0.1141308418E-01       4    7    1        -0.5980409545E+00      0.1596536678E+01
          0                 2           2             4    7     1       0.1110181732E-02       4    7    1         0.5980409226E-01      0.1596520806E+00
          0                 3           1             4    7     1      -0.7559926054E-04       4    7    1        -0.4186288285E-02      0.1117592884E-01

    ------------------------------------------------
       NWT REQUIRED            3 OUTER ITERATIONS 
       AND A TOTAL OF          5 INNER ITERATIONS.
    ------------------------------------------------

 NO OUTPUT CONTROL FOR STRESS PERIOD   42   TIME STEP    2
 
 SOLVING FOR HEAD 
                                                   Max.-Head-Change                         Max.-Flux-Residual
  Residual-Control   Outer-Iter.   Inner-Iter.     Column Row Layer    Maximum-Head-Change  Column Row Layer    Maximum-Flux-Residual          L2-NORM 
          0                 1           2             4    7     1      -0.1131397182E-01       4    7    1        -0.5931216083E+00      0.1562139022E+01
          0                 2           2             4    7     1       0.1100540657E-02       4    7    1         0.5931214759E-01      0.1562115497E+00
          0                 3           1             4    7     1      -0.7494274072E-04       4    7    1        -0.4151852248E-02      0.1093507076E-01

    ------------------------------------------------
       NWT REQUIRED            3 OUTER ITERATIONS 
       AND A TOTAL OF          5 INNER ITERATIONS.
    ------------------------------------------------

 NO OUTPUT CONTROL FOR STRESS PERIOD   42   TIME STEP    3
 
 SOLVING FOR HEAD 
                                                   Max.-Head-Change                         Max.-Flux-Residual
  Residual-Control   Outer-Iter.   Inner-Iter.     Column Row Layer    Maximum-Head-Change  Column Row Layer    Maximum-Flux-Residual          L2-NORM 
          0                 1           2             4    7     1      -0.1121083244E-01       4    7    1        -0.5879695699E+00      0.1528782992E+01
          0                 2           2             4    7     1       0.1090507880E-02       4    7    1         0.5879693473E-01      0.1528762824E+00
          0                 3           1             4    7     1      -0.7425954734E-04       4    7    1        -0.4115787436E-02      0.1070154571E-01

    ------------------------------------------------
       NWT REQUIRED            3 OUTER ITERATIONS 
       AND A TOTAL OF          5 INNER ITERATIONS.
    ------------------------------------------------

 NO OUTPUT CONTROL FOR STRESS PERIOD   42   TIME STEP    4
 
 SOLVING FOR HEAD 
                                                   Max.-Head-Change                         Max.-Flux-Residual
  Residual-Control   Outer-Iter.   Inner-Iter.     Column Row Layer    Maximum-Head-Change  Column Row Layer    Maximum-Flux-Residual          L2-NORM 
          0                 1           2             4    7     1      -0.1110396879E-01       4    7    1        -0.5826016542E+00      0.1496546234E+01
          0                 2           2             4    7     1       0.1080112845E-02       4    7    1         0.5826013510E-01      0.1496529062E+00
          0                 3           1             4    7     1      -0.7355168480E-04       4    7    1        -0.4078211501E-02      0.1047585474E-01

    ------------------------------------------------
       NWT REQUIRED            3 OUTER ITERATIONS 
       AND A TOTAL OF          5 INNER ITERATIONS.
    ------------------------------------------------

 NO OUTPUT CONTROL FOR STRESS PERIOD   42   TIME STEP    5
 
 SOLVING FOR HEAD 
                                                   Max.-Head-Change                         Max.-Flux-Residual
  Residual-Control   Outer-Iter.   Inner-Iter.     Column Row Layer    Maximum-Head-Change  Column Row Layer    Maximum-Flux-Residual          L2-NORM 
          0                 1           2             4    7     1      -0.1099379717E-01       4    7    1        -0.5770410018E+00      0.1465433218E+01
          0                 2           2             4    7     1       0.1069396047E-02       4    7    1         0.5770406266E-01      0.1465418302E+00
          0                 3           1             4    7     1      -0.7282191165E-04       4    7    1        -0.4039286487E-02      0.1025803515E-01

    ------------------------------------------------
       NWT REQUIRED            3 OUTER ITERATIONS 
       AND A TOTAL OF          5 INNER ITERATIONS.
    ------------------------------------------------

 NO OUTPUT CONTROL FOR STRESS PERIOD   42   TIME STEP    6
 
 SOLVING FOR HEAD 
                                                   Max.-Head-Change                         Max.-Flux-Residual
  Residual-Control   Outer-Iter.   Inner-Iter.     Column Row Layer    Maximum-Head-Change  Column Row Layer    Maximum-Flux-Residual          L2-NORM 
          0                 1           2             4    7     1      -0.1088084170E-01       4    7    1        -0.5713164019E+00      0.1435434535E+01
          0                 2           2             4    7     1       0.1058408469E-02       4    7    1         0.5713159629E-01      0.1435421752E+00
          0                 3           1             4    7     1      -0.7207369939E-04       4    7    1        -0.3999213893E-02      0.1004806278E-01

    ------------------------------------------------
       NWT REQUIRED            3 OUTER ITERATIONS 
       AND A TOTAL OF          5 INNER ITERATIONS.
    ------------------------------------------------

 NO OUTPUT CONTROL FOR STRESS PERIOD   42   TIME STEP    7
 
 SOLVING FOR HEAD 
                                                   Max.-Head-Change                         Max.-Flux-Residual
  Residual-Control   Outer-Iter.   Inner-Iter.     Column Row Layer    Maximum-Head-Change  Column Row Layer    Maximum-Flux-Residual          L2-NORM 
          0                 1           2             4    7     1      -0.1076532302E-01       4    7    1        -0.5654403819E+00      0.1406521047E+01
          0                 2           2             4    7     1       0.1047171571E-02       4    7    1         0.5654398862E-01      0.1406509961E+00
          0                 3           1             4    7     1      -0.7130850879E-04       4    7    1        -0.3958081380E-02      0.9845657547E-02

    ------------------------------------------------
       NWT REQUIRED            3 OUTER ITERATIONS 
       AND A TOTAL OF          5 INNER ITERATIONS.
    ------------------------------------------------

 NO OUTPUT CONTROL FOR STRESS PERIOD   42   TIME STEP    8
 
 SOLVING FOR HEAD 
                                                   Max.-Head-Change                         Max.-Flux-Residual
  Residual-Control   Outer-Iter.   Inner-Iter.     Column Row Layer    Maximum-Head-Change  Column Row Layer    Maximum-Flux-Residual          L2-NORM 
          0                 1           2             4    7     1      -0.1064771899E-01       4    7    1        -0.5594392677E+00      0.1378663432E+01
          0                 2           2             4    7     1       0.1035731835E-02       4    7    1         0.5594387223E-01      0.1378653919E+00
          0                 3           1             4    7     1      -0.7052950617E-04       4    7    1        -0.3916073263E-02      0.9650518871E-02

    ------------------------------------------------
       NWT REQUIRED            3 OUTER ITERATIONS 
       AND A TOTAL OF          5 INNER ITERATIONS.
    ------------------------------------------------

 NO OUTPUT CONTROL FOR STRESS PERIOD   42   TIME STEP    9
 
 SOLVING FOR HEAD 
                                                   Max.-Head-Change                         Max.-Flux-Residual
  Residual-Control   Outer-Iter.   Inner-Iter.     Column Row Layer    Maximum-Head-Change  Column Row Layer    Maximum-Flux-Residual          L2-NORM 
          0                 1           2             4    7     1      -0.1052807018E-01       4    7    1        -0.5533152679E+00      0.1351824717E+01
          0                 2           2             4    7     1       0.1024093207E-02       4    7    1         0.5533146792E-01      0.1351816392E+00
          0                 3           1             4    7     1      -0.6973695945E-04       4    7    1        -0.3873204982E-02      0.9462775446E-02

    ------------------------------------------------
       NWT REQUIRED            3 OUTER ITERATIONS 
       AND A TOTAL OF          5 INNER ITERATIONS.
    ------------------------------------------------

 NO OUTPUT CONTROL FOR STRESS PERIOD   42   TIME STEP   10
 
 SOLVING FOR HEAD 
                                                   Max.-Head-Change                         Max.-Flux-Residual
  Residual-Control   Outer-Iter.   Inner-Iter.     Column Row Layer    Maximum-Head-Change  Column Row Layer    Maximum-Flux-Residual          L2-NORM 
          0                 1           2             4    7     1      -0.1040695084E-01       4    7    1        -0.5471004964E+00      0.1325951013E+01
          0                 2           2             4    7     1       0.1012311545E-02       4    7    1         0.5470998699E-01      0.1325943448E+00
          0                 3           1             4    7     1      -0.6893467232E-04       4    7    1        -0.3829701333E-02      0.9281648440E-02

    ------------------------------------------------
       NWT REQUIRED            3 OUTER ITERATIONS 
       AND A TOTAL OF          5 INNER ITERATIONS.
    ------------------------------------------------

 NO OUTPUT CONTROL FOR STRESS PERIOD   42   TIME STEP   11
 
 SOLVING FOR HEAD 
                                                   Max.-Head-Change                         Max.-Flux-Residual
  Residual-Control   Outer-Iter.   Inner-Iter.     Column Row Layer    Maximum-Head-Change  Column Row Layer    Maximum-Flux-Residual          L2-NORM 
          0                 1           2             4    7     1      -0.1028449175E-01       4    7    1        -0.5408020410E+00      0.1301018022E+01
          0                 2           2             4    7     1       0.1000399569E-02       4    7    1         0.5408013819E-01      0.1301011371E+00
          0                 3           1             4    7     1      -0.6812351172E-04       4    7    1        -0.3785611944E-02      0.9107094938E-02

    ------------------------------------------------
       NWT REQUIRED            3 OUTER ITERATIONS 
       AND A TOTAL OF          5 INNER ITERATIONS.
    ------------------------------------------------

 NO OUTPUT CONTROL FOR STRESS PERIOD   42   TIME STEP   12
 
 SOLVING FOR HEAD 
                                                   Max.-Head-Change                         Max.-Flux-Residual
  Residual-Control   Outer-Iter.   Inner-Iter.     Column Row Layer    Maximum-Head-Change  Column Row Layer    Maximum-Flux-Residual          L2-NORM 
          0                 1           2             4    7     1      -0.1016095501E-01       4    7    1        -0.5344344822E+00      0.1276981513E+01
          0                 2           2             4    7     1       0.9883827746E-03       4    7    1         0.5344337955E-01      0.1276975640E+00
          0                 3           1             4    7     1      -0.6730521235E-04       4    7    1        -0.3741038827E-02      0.8938862937E-02

    ------------------------------------------------
       NWT REQUIRED            3 OUTER ITERATIONS 
       AND A TOTAL OF          5 INNER ITERATIONS.
    ------------------------------------------------

 NO OUTPUT CONTROL FOR STRESS PERIOD   42   TIME STEP   13
 
 SOLVING FOR HEAD 
                                                   Max.-Head-Change                         Max.-Flux-Residual
  Residual-Control   Outer-Iter.   Inner-Iter.     Column Row Layer    Maximum-Head-Change  Column Row Layer    Maximum-Flux-Residual          L2-NORM 
          0                 1           2             4    7     1      -0.1003671298E-01       4    7    1        -0.5280184948E+00      0.1253800247E+01
          0                 2           2             4    7     1       0.9762973817E-03       4    7    1         0.5280177848E-01      0.1253794457E+00
          0                 3           1             4    7     1      -0.6648224246E-04       4    7    1        -0.3696126756E-02      0.8776595078E-02

    ------------------------------------------------
       NWT REQUIRED            3 OUTER ITERATIONS 
       AND A TOTAL OF          5 INNER ITERATIONS.
    ------------------------------------------------

 NO OUTPUT CONTROL FOR STRESS PERIOD   42   TIME STEP   14
 
 SOLVING FOR HEAD 
                                                   Max.-Head-Change                         Max.-Flux-Residual
  Residual-Control   Outer-Iter.   Inner-Iter.     Column Row Layer    Maximum-Head-Change  Column Row Layer    Maximum-Flux-Residual          L2-NORM 
          0                 1           2             4    7     1      -0.9911712072E-02       4    7    1        -0.5215515356E+00      0.1231435996E+01
          0                 2           2             4    7     1       0.9641447363E-03       4    7    1         0.5215508064E-01      0.1231393562E+00
          0                 3           1             4    7     1      -0.6566107508E-04       4    7    1        -0.3650857918E-02      0.8632160503E-02

    ------------------------------------------------
       NWT REQUIRED            3 OUTER ITERATIONS 
       AND A TOTAL OF          5 INNER ITERATIONS.
    ------------------------------------------------

 NO OUTPUT CONTROL FOR STRESS PERIOD   42   TIME STEP   15
 
 SOLVING FOR HEAD 
                                                   Max.-Head-Change                         Max.-Flux-Residual
  Residual-Control   Outer-Iter.   Inner-Iter.     Column Row Layer    Maximum-Head-Change  Column Row Layer    Maximum-Flux-Residual          L2-NORM 
          0                 1           2             4    7     1      -0.9786433574E-02       4    7    1        -0.5150601317E+00      0.1209854432E+01
          0                 2           2             4    7     1       0.9518730007E-03       4    7    1         0.5150593866E-01      0.1208364059E+00
          0                 3           1             4    7     1      -0.6481903312E-04       4    7    1        -0.3605417973E-02      0.8458555413E-02

    ------------------------------------------------
       NWT REQUIRED            3 OUTER ITERATIONS 
       AND A TOTAL OF          5 INNER ITERATIONS.
    ------------------------------------------------

 NO OUTPUT CONTROL FOR STRESS PERIOD   42   TIME STEP   16
 
 SOLVING FOR HEAD 
                                                   Max.-Head-Change                         Max.-Flux-Residual
  Residual-Control   Outer-Iter.   Inner-Iter.     Column Row Layer    Maximum-Head-Change  Column Row Layer    Maximum-Flux-Residual          L2-NORM 
          0                 1           2             4    7     1      -0.9661166596E-02       4    7    1        -0.5085510635E+00      0.1189157108E+01
          0                 2           2             4    7     1       0.9397669153E-03       4    7    1         0.5085503083E-01      0.1189153375E+00
          0                 3           1             4    7     1      -0.6399465372E-04       4    7    1        -0.3559854413E-02      0.8324070645E-02

    ------------------------------------------------
       NWT REQUIRED            3 OUTER ITERATIONS 
       AND A TOTAL OF          5 INNER ITERATIONS.
    ------------------------------------------------

 NO OUTPUT CONTROL FOR STRESS PERIOD   42   TIME STEP   17
 
 SOLVING FOR HEAD 
                                                   Max.-Head-Change                         Max.-Flux-Residual
  Residual-Control   Outer-Iter.   Inner-Iter.     Column Row Layer    Maximum-Head-Change  Column Row Layer    Maximum-Flux-Residual          L2-NORM 
          0                 1           2             4    7     1      -0.9535835049E-02       4    7    1        -0.5020345755E+00      0.1169173823E+01
          0                 2           2             4    7     1       0.9275755623E-03       4    7    1         0.5020338121E-01      0.1169170431E+00
          0                 3           1             4    7     1      -0.6316446790E-04       4    7    1        -0.3514238925E-02      0.8184208218E-02

    ------------------------------------------------
       NWT REQUIRED            3 OUTER ITERATIONS 
       AND A TOTAL OF          5 INNER ITERATIONS.
    ------------------------------------------------

 NO OUTPUT CONTROL FOR STRESS PERIOD   42   TIME STEP   18
 
 SOLVING FOR HEAD 
                                                   Max.-Head-Change                         Max.-Flux-Residual
  Residual-Control   Outer-Iter.   Inner-Iter.     Column Row Layer    Maximum-Head-Change  Column Row Layer    Maximum-Flux-Residual          L2-NORM 
          0                 1           2             4    7     1      -0.9410675937E-02       4    7    1        -0.4955189399E+00      0.1149873219E+01
          0                 2           2             4    7     1       0.9154009859E-03       4    7    1         0.4955181705E-01      0.1149870023E+00
          0                 3           1             4    7     1      -0.6233542451E-04       4    7    1        -0.3468629422E-02      0.8049089899E-02

    ------------------------------------------------
       NWT REQUIRED            3 OUTER ITERATIONS 
       AND A TOTAL OF          5 INNER ITERATIONS.
    ------------------------------------------------

 NO OUTPUT CONTROL FOR STRESS PERIOD   42   TIME STEP   19
 
 SOLVING FOR HEAD 
                                                   Max.-Head-Change                         Max.-Flux-Residual
  Residual-Control   Outer-Iter.   Inner-Iter.     Column Row Layer    Maximum-Head-Change  Column Row Layer    Maximum-Flux-Residual          L2-NORM 
          0                 1           2             4    7     1      -0.9285828098E-02       4    7    1        -0.4890124863E+00      0.1131211670E+01
          0                 2           2             4    7     1       0.9032566914E-03       4    7    1         0.4890117136E-01      0.1131208575E+00
          0                 3           1             4    7     1      -0.6150844254E-04       4    7    1        -0.3423084195E-02      0.7918441166E-02

    ------------------------------------------------
       NWT REQUIRED            3 OUTER ITERATIONS 
       AND A TOTAL OF          5 INNER ITERATIONS.
    ------------------------------------------------

 NO OUTPUT CONTROL FOR STRESS PERIOD   42   TIME STEP   20
 
 SOLVING FOR HEAD 
                                                   Max.-Head-Change                         Max.-Flux-Residual
  Residual-Control   Outer-Iter.   Inner-Iter.     Column Row Layer    Maximum-Head-Change  Column Row Layer    Maximum-Flux-Residual          L2-NORM 
          0                 1           2             4    7     1      -0.9161423354E-02       4    7    1        -0.4825222940E+00      0.1113174150E+01
          0                 2           2             4    7     1       0.8911555013E-03       4    7    1         0.4825215197E-01      0.1113171211E+00
          0                 3           1             4    7     1      -0.6068439709E-04       4    7    1        -0.3377652843E-02      0.7792199717E-02

    ------------------------------------------------
       NWT REQUIRED            3 OUTER ITERATIONS 
       AND A TOTAL OF          5 INNER ITERATIONS.
    ------------------------------------------------

 NO OUTPUT CONTROL FOR STRESS PERIOD   42   TIME STEP   21
 
 SOLVING FOR HEAD 
                                                   Max.-Head-Change                         Max.-Flux-Residual
  Residual-Control   Outer-Iter.   Inner-Iter.     Column Row Layer    Maximum-Head-Change  Column Row Layer    Maximum-Flux-Residual          L2-NORM 
          0                 1           2             4    7     1      -0.9037715910E-02       4    7    1        -0.4760624001E+00      0.1095731873E+01
          0                 2           2             4    7     1       0.8791221419E-03       4    7    1         0.4760616263E-01      0.1095729156E+00
          0                 3           1             4    7     1      -0.5986497009E-04       4    7    1        -0.3332433559E-02      0.7670097129E-02

    ------------------------------------------------
       NWT REQUIRED            3 OUTER ITERATIONS 
       AND A TOTAL OF          5 INNER ITERATIONS.
    ------------------------------------------------

 NO OUTPUT CONTROL FOR STRESS PERIOD   42   TIME STEP   22
 
 SOLVING FOR HEAD 
                                                   Max.-Head-Change                         Max.-Flux-Residual
  Residual-Control   Outer-Iter.   Inner-Iter.     Column Row Layer    Maximum-Head-Change  Column Row Layer    Maximum-Flux-Residual          L2-NORM 
          0                 1           2             4    7     1      -0.8914537190E-02       4    7    1        -0.4696241389E+00      0.1078850544E+01
          0                 2           2             4    7     1       0.8671402157E-03       4    7    1         0.4696233675E-01      0.1078848110E+00
          0                 3           1             4    7     1      -0.5904904502E-04       4    7    1        -0.3287365725E-02      0.7551933158E-02

    ------------------------------------------------
       NWT REQUIRED            3 OUTER ITERATIONS 
       AND A TOTAL OF          5 INNER ITERATIONS.
    ------------------------------------------------

 NO OUTPUT CONTROL FOR STRESS PERIOD   42   TIME STEP   23
 
 SOLVING FOR HEAD 
                                                   Max.-Head-Change                         Max.-Flux-Residual
  Residual-Control   Outer-Iter.   Inner-Iter.     Column Row Layer    Maximum-Head-Change  Column Row Layer    Maximum-Flux-Residual          L2-NORM 
          0                 1           2             4    7     1      -0.8792266879E-02       4    7    1        -0.4632281755E+00      0.1062518361E+01
          0                 2           2             4    7     1       0.8552466549E-03       4    7    1         0.4632274078E-01      0.1062515882E+00
          0                 3           1             4    7     1      -0.5823913760E-04       4    7    1        -0.3242593978E-02      0.7437593550E-02

    ------------------------------------------------
       NWT REQUIRED            3 OUTER ITERATIONS 
       AND A TOTAL OF          5 INNER ITERATIONS.
    ------------------------------------------------

 NO OUTPUT CONTROL FOR STRESS PERIOD   42   TIME STEP   24
 
 SOLVING FOR HEAD 
                                                   Max.-Head-Change                         Max.-Flux-Residual
  Residual-Control   Outer-Iter.   Inner-Iter.     Column Row Layer    Maximum-Head-Change  Column Row Layer    Maximum-Flux-Residual          L2-NORM 
          0                 1           2             4    7     1      -0.8670851779E-02       4    7    1        -0.4568719931E+00      0.1046703274E+01
          0                 2           2             4    7     1       0.8434362844E-03       4    7    1         0.4568712303E-01      0.1046700982E+00
          0                 3           1             4    7     1      -0.5743489484E-04       4    7    1        -0.3198100708E-02      0.7326910371E-02

    ------------------------------------------------
       NWT REQUIRED            3 OUTER ITERATIONS 
       AND A TOTAL OF          5 INNER ITERATIONS.
    ------------------------------------------------

 NO OUTPUT CONTROL FOR STRESS PERIOD   42   TIME STEP   25
 
 SOLVING FOR HEAD 
                                                   Max.-Head-Change                         Max.-Flux-Residual
  Residual-Control   Outer-Iter.   Inner-Iter.     Column Row Layer    Maximum-Head-Change  Column Row Layer    Maximum-Flux-Residual          L2-NORM 
          0                 1           2             4    7     1      -0.8550379977E-02       4    7    1        -0.4505602739E+00      0.1031394248E+01
          0                 2           2             4    7     1       0.8317176736E-03       4    7    1         0.4505595176E-01      0.1031391625E+00
          0                 3           1             4    7     1      -0.5663690085E-04       4    7    1        -0.3153918694E-02      0.7219689031E-02

    ------------------------------------------------
       NWT REQUIRED            3 OUTER ITERATIONS 
       AND A TOTAL OF          5 INNER ITERATIONS.
    ------------------------------------------------

 NO OUTPUT CONTROL FOR STRESS PERIOD   42   TIME STEP   26
 
 SOLVING FOR HEAD 
                                                   Max.-Head-Change                         Max.-Flux-Residual
  Residual-Control   Outer-Iter.   Inner-Iter.     Column Row Layer    Maximum-Head-Change  Column Row Layer    Maximum-Flux-Residual          L2-NORM 
          0                 1           2             4    7     1      -0.8431054090E-02       4    7    1        -0.4443047871E+00      0.1016563649E+01
          0                 2           2             4    7     1       0.8201105303E-03       4    7    1         0.4443040380E-01      0.1016561378E+00
          0                 3           1             4    7     1      -0.5584649745E-04       4    7    1        -0.3110130320E-02      0.7115946424E-02

    ------------------------------------------------
       NWT REQUIRED            3 OUTER ITERATIONS 
       AND A TOTAL OF          5 INNER ITERATIONS.
    ------------------------------------------------

 NO OUTPUT CONTROL FOR STRESS PERIOD   42   TIME STEP   27
 
 SOLVING FOR HEAD 
                                                   Max.-Head-Change                         Max.-Flux-Residual
  Residual-Control   Outer-Iter.   Inner-Iter.     Column Row Layer    Maximum-Head-Change  Column Row Layer    Maximum-Flux-Residual          L2-NORM 
          0                 1           2             4    7     1      -0.8312671075E-02       4    7    1        -0.4380941939E+00      0.1002204321E+01
          0                 2           2             4    7     1       0.8085951038E-03       4    7    1         0.4380934530E-01      0.1002194886E+00
          0                 3           1             4    7     1      -0.5506233937E-04       4    7    1        -0.3066656199E-02      0.7015313067E-02

    ------------------------------------------------
       NWT REQUIRED            3 OUTER ITERATIONS 
       AND A TOTAL OF          5 INNER ITERATIONS.
    ------------------------------------------------

 NO OUTPUT CONTROL FOR STRESS PERIOD   42   TIME STEP   28
 
 SOLVING FOR HEAD 
                                                   Max.-Head-Change                         Max.-Flux-Residual
  Residual-Control   Outer-Iter.   Inner-Iter.     Column Row Layer    Maximum-Head-Change  Column Row Layer    Maximum-Flux-Residual          L2-NORM 
          0                 1           2             4    7     1      -0.8195567265E-02       4    7    1        -0.4319472509E+00      0.9883001008E+00
          0                 2           2             4    7     1       0.7972041106E-03       4    7    1         0.4319465192E-01      0.9882815034E-01
          0                 3           1             4    7     1      -0.5428665491E-04       4    7    1        -0.3023627627E-02      0.6917913619E-02

    ------------------------------------------------
       NWT REQUIRED            3 OUTER ITERATIONS 
       AND A TOTAL OF          5 INNER ITERATIONS.
    ------------------------------------------------

 NO OUTPUT CONTROL FOR STRESS PERIOD   42   TIME STEP   29
 
 SOLVING FOR HEAD 
                                                   Max.-Head-Change                         Max.-Flux-Residual
  Residual-Control   Outer-Iter.   Inner-Iter.     Column Row Layer    Maximum-Head-Change  Column Row Layer    Maximum-Flux-Residual          L2-NORM 
          0                 1           2             4    7     1      -0.8079653443E-02       4    7    1        -0.4258593142E+00      0.9747948803E+00
          0                 2           2             4    7     1       0.7859288714E-03       4    7    1         0.4258585922E-01      0.9747788171E-01
          0                 3           1             4    7     1      -0.5351885274E-04       4    7    1        -0.2981012110E-02      0.6823389280E-02

    ------------------------------------------------
       NWT REQUIRED            3 OUTER ITERATIONS 
       AND A TOTAL OF          5 INNER ITERATIONS.
    ------------------------------------------------

 NO OUTPUT CONTROL FOR STRESS PERIOD   42   TIME STEP   30



 STREAM LISTING     PERIOD     42   STEP       30

 LAYER ROW COL. STREAM  RCH.  FLOW INTO     FLOW TO   FLOW OUT OF   OVRLND.     DIRECT     STREAM       STREAM     STREAM     STREAM   STREAMBED  STREAMBED
                SEG.NO.  NO.  STRM. RCH.    AQUIFER    STRM. RCH.    RUNOFF     PRECIP       ET          HEAD       DEPTH      WIDTH   CONDCTNC.   GRADIENT

   1    1    1     1     1    1.9000E+01  2.1427E-01   1.8786E+01  0.000E+00  0.000E+00  0.000E+00  1.09413E+03  1.082E+00  1.166E+01  5.249E-02  1.361E+00
   1    2    2     1     2    1.8786E+01  3.3054E-01   1.8455E+01  0.000E+00  0.000E+00  0.000E+00  1.08914E+03  1.077E+00  1.158E+01  8.107E-02  1.359E+00
   1    3    3     1     3    1.8455E+01  2.8064E-01   1.8175E+01  0.000E+00  0.000E+00  0.000E+00  1.08349E+03  1.072E+00  1.149E+01  6.892E-02  1.357E+00
   1    3    4     1     4    1.8175E+01  2.5740E-01   1.7917E+01  0.000E+00  0.000E+00  0.000E+00  1.07848E+03  1.068E+00  1.140E+01  6.328E-02  1.356E+00
   1    4    5     2     1    1.5917E+01  3.0542E-01   1.5612E+01  0.000E+00  0.000E+00  0.000E+00  1.07285E+03  9.157E-01  1.200E+01  7.800E-02  1.305E+00
   1    5    6     2     2    1.5612E+01  2.3438E-01   1.5377E+01  0.000E+00  0.000E+00  0.000E+00  1.06742E+03  9.063E-01  1.200E+01  6.000E-02  1.302E+00
   1    6    6     2     3    1.5377E+01  2.3388E-01   1.5143E+01  0.000E+00  0.000E+00  0.000E+00  1.06269E+03  8.980E-01  1.200E+01  6.000E-02  1.299E+00
   1    7    6     2     4    1.5143E+01  2.3338E-01   1.4910E+01  0.000E+00  0.000E+00  0.000E+00  1.05797E+03  8.897E-01  1.200E+01  6.000E-02  1.297E+00
   1    8    6     2     5    1.4910E+01  2.3289E-01   1.4677E+01  0.000E+00  0.000E+00  0.000E+00  1.05324E+03  8.814E-01  1.200E+01  6.000E-02  1.294E+00
   1    3    5     3     1    2.0000E+00  2.8252E-01   1.7175E+00  0.000E+00  0.000E+00  0.000E+00  1.07555E+03  1.909E+00  9.636E+00  7.227E-02  1.955E+00
   1    3    6     3     2    1.7175E+00  2.4905E-01   1.4684E+00  0.000E+00  0.000E+00  0.000E+00  1.07264E+03  1.727E+00  8.909E+00  6.682E-02  1.864E+00
   1    3    7     3     3    1.4684E+00  1.9718E-01   1.2712E+00  0.000E+00  0.000E+00  0.000E+00  1.06987E+03  1.555E+00  8.218E+00  5.547E-02  1.777E+00
   1    4    8     3     4    1.2712E+00  2.2567E-01   1.0456E+00  0.000E+00  0.000E+00  0.000E+00  1.06682E+03  1.364E+00  7.455E+00  6.709E-02  1.682E+00
   1    5    8     3     5    1.0456E+00  1.5790E-01   8.8768E-01  0.000E+00  0.000E+00  0.000E+00  1.06362E+03  1.164E+00  6.655E+00  4.991E-02  1.582E+00
   1    6    8     3     6    8.8768E-01  5.5980E-02   8.3170E-01  0.000E+00  0.000E+00  0.000E+00  1.06158E+03  1.036E+00  6.145E+00  1.844E-02  1.518E+00
   1    5   10     4     1    1.0000E+01  9.0919E-02   9.9091E+00  0.000E+00  0.000E+00  0.000E+00  1.07836E+03  6.368E-01  1.000E+01  2.500E-02  1.212E+00
   1    5    9     4     2    9.9091E+00  1.8158E-01   9.7275E+00  0.000E+00  0.000E+00  0.000E+00  1.07154E+03  6.315E-01  1.000E+01  5.000E-02  1.211E+00
   1    6    8     4     3    9.7275E+00  1.2689E-01   9.6006E+00  0.000E+00  0.000E+00  0.000E+00  1.06381E+03  6.256E-01  1.000E+01  3.500E-02  1.209E+00
   1    6    8     5     1    1.0432E+01  2.2686E-01   1.0205E+01  0.000E+00  0.000E+00  0.000E+00  1.05868E+03  6.790E-01  1.542E+01  6.166E-02  1.226E+00
   1    7    7     5     2    1.0205E+01  2.7894E-01   9.9265E+00  0.000E+00  0.000E+00  0.000E+00  1.05417E+03  6.732E-01  1.519E+01  7.594E-02  1.224E+00
   1    8    7     5     3    9.9265E+00  1.9221E-01   9.7343E+00  0.000E+00  0.000E+00  0.000E+00  1.04992E+03  6.676E-01  1.497E+01  5.241E-02  1.223E+00
   1    8    6     5     4    9.7343E+00  1.3577E-01   9.5985E+00  0.000E+00  0.000E+00  0.000E+00  1.04691E+03  6.637E-01  1.482E+01  3.706E-02  1.221E+00
   1    9    6     6     1    2.4276E+01  2.5176E-01   2.4024E+01  0.000E+00  0.000E+00  0.000E+00  1.04392E+03  1.196E+00  1.200E+01  6.000E-02  1.399E+00
   1   10    7     6     2    2.4024E+01  2.5131E-01   2.3773E+01  0.000E+00  0.000E+00  0.000E+00  1.03937E+03  1.188E+00  1.200E+01  6.000E-02  1.396E+00
   1   11    7     6     3    2.3773E+01  2.5086E-01   2.3522E+01  0.000E+00  0.000E+00  0.000E+00  1.03482E+03  1.181E+00  1.200E+01  6.000E-02  1.394E+00
   1   12    7     6     4    2.3522E+01  2.5041E-01   2.3271E+01  0.000E+00  0.000E+00  0.000E+00  1.03026E+03  1.173E+00  1.200E+01  6.000E-02  1.391E+00
   1   13    7     6     5    2.3271E+01  1.0713E-02   2.3261E+01  0.000E+00  0.000E+00  0.000E+00  1.02708E+03  1.170E+00  1.200E+01  2.400E-02  1.488E-01
   1   14    9     7     1    1.5000E+02  1.3689E+00   1.4863E+02  0.000E+00  0.000E+00  0.000E+00  1.03987E+03  2.288E+00  5.529E+01  5.593E-01  8.158E-01
   1   13    8     7     2    1.4863E+02  1.9655E+00   1.4667E+02  0.000E+00  0.000E+00  0.000E+00  1.03478E+03  2.279E+00  5.525E+01  6.147E-01  1.066E+00
   1   13    7     7     3    1.4667E+02  1.7064E+00   1.4496E+02  0.000E+00  0.000E+00  0.000E+00  1.02969E+03  2.269E+00  5.521E+01  5.584E-01  1.019E+00
   1   13    6     8     1    1.6822E+02  1.1416E+00   1.6708E+02  0.000E+00  0.000E+00  0.000E+00  1.02481E+03  2.937E+00  4.258E+01  4.339E-01  8.769E-01
   1   13    5     8     2    1.6708E+02  3.7826E-01   1.6670E+02  0.000E+00  0.000E+00  0.000E+00  1.01856E+03  2.932E+00  4.251E+01  4.332E-01  2.911E-01
   1   13    4     8     3    1.6670E+02 -1.7652E+00   1.6847E+02  0.000E+00  0.000E+00  0.000E+00  1.01231E+03  2.936E+00  4.258E+01  4.339E+00 -1.356E-01
   1   13    3     8     4    1.6847E+02 -3.3202E+00   1.7179E+02  0.000E+00  0.000E+00  0.000E+00  1.00608E+03  2.953E+00  4.282E+01  4.363E+00 -2.536E-01
   1   13    2     8     5    1.7179E+02 -2.4954E+00   1.7428E+02  0.000E+00  0.000E+00  0.000E+00  9.99847E+02  2.972E+00  4.309E+01  4.391E+00 -1.894E-01
   1   13    1     8     6    1.7428E+02 -1.9613E+00   1.7624E+02  0.000E+00  0.000E+00  0.000E+00  9.94861E+02  2.986E+00  4.330E+01  2.647E+00 -2.470E-01





UNSATURATED ZONE PACKAGE VOLUMETRIC BUDGET FOR  TIME STEP    30 STRESS PERIOD   42
  ------------------------------------------------------------------------------



     CUMULATIVE VOLUMES      L**3       RATES FOR THIS TIME STEP      L**3/T
     ------------------                 ------------------------

           IN:                                      IN:
           ---                                      ---
        INFILTRATION =  1695830450.9575          INFILTRATION =          11.5990

          OUT:                                     OUT:
          ----                                     ----
              UZF ET =  1569375073.6215                UZF ET =          11.6075
        UZF RECHARGE =     1338844.6814          UZF RECHARGE =           0.0075

            IN - OUT =   125116532.6546              IN - OUT =      -1.5994E-02

          STORAGE:                                 STORAGE:
          --------                                 --------
      STORAGE CHANGE =   125117460.7425        STORAGE CHANGE =      -1.5994E-02

 PERCENT DISCREPANCY IS DIFFERENCE BETWEEN IN-OUT MINUS CHANGE IN STORAGE
 DIVIDED BY THE AVERAGE OF IN AND OUT TIMES 100

 PERCENT DISCREPANCY =          -0.00     PERCENT DISCREPANCY =           0.00






1
  VOLUMETRIC BUDGET FOR AGRICULTURAL FIELDS AT TIME STEP   30, STRESS PERIOD  42
  ------------------------------------------------------------------------------

     CUMULATIVE VOLUMES      L**3       RATES FOR THIS TIME STEP      L**3/T
     ------------------                 ------------------------

           IN:                                      IN:
           ---                                      ---
               AG WELLS  =  1220496256.0000                 AG WELLS  =           7.1915
      DIVERSION SEGMENTS =           0.0000        DIVERSION SEGMENTS =           0.0000
           GW IRRIGATION =           0.0000             GW IRRIGATION =           0.0000
           SW IRRIGATION =           0.0000             SW IRRIGATION =           0.0000
        SYSTEM LOSSES GW =           0.0000          SYSTEM LOSSES GW =           0.0000
        SYSTEM LOSSES SW =           0.0000          SYSTEM LOSSES SW =           0.0000

                TOTAL IN =  1220496256.0000                  TOTAL IN =           7.1915

          OUT:                                     OUT:
          ----                                     ----
               AG WELLS  =           0.0000                 AG WELLS  =           0.0000
      DIVERSION SEGMENTS =           0.0000        DIVERSION SEGMENTS =           0.0000
           GW IRRIGATION =  1220496256.0000             GW IRRIGATION =           7.1915
           SW IRRIGATION =           0.0000             SW IRRIGATION =           0.0000
        SYSTEM LOSSES GW =           0.0000          SYSTEM LOSSES GW =           0.0000
        SYSTEM LOSSES SW =           0.0000          SYSTEM LOSSES SW =           0.0000

               TOTAL OUT =  1220496256.0000                 TOTAL OUT =           7.1915

                IN - OUT =           0.0000                  IN - OUT =           0.0000

     PERCENT DISCREPANCY =           0.00         PERCENT DISCREPANCY =           0.00



1
  VOLUMETRIC BUDGET FOR ENTIRE MODEL AT END OF TIME STEP   30, STRESS PERIOD  42
  ------------------------------------------------------------------------------

     CUMULATIVE VOLUMES      L**3       RATES FOR THIS TIME STEP      L**3/T
     ------------------                 ------------------------

           IN:                                      IN:
           ---                                      ---
             STORAGE     =  1706740480.0000               STORAGE     =           5.3116
       CONSTANT HEAD     =           0.0000         CONSTANT HEAD     =           0.0000
     HEAD DEP BOUNDS     =    30870134.0000       HEAD DEP BOUNDS     =           0.2880
      STREAM LEAKAGE     =  1320815872.0000        STREAM LEAKAGE     =          12.2999
        UZF RECHARGE     =     1338844.0000          UZF RECHARGE     =       7.5148E-03
               GW ET     =           0.0000                 GW ET     =           0.0000
     SURFACE LEAKAGE     =           0.0000       SURFACE LEAKAGE     =           0.0000
           AG WELLS      =           0.0000             AG WELLS      =           0.0000

                TOTAL IN =  3059765248.0000                  TOTAL IN =          17.9071

          OUT:                                     OUT:
          ----                                     ----
             STORAGE     =   690437888.0000               STORAGE     =           0.8833
       CONSTANT HEAD     =           0.0000         CONSTANT HEAD     =           0.0000
     HEAD DEP BOUNDS     =    31513386.0000       HEAD DEP BOUNDS     =           0.2889
      STREAM LEAKAGE     =  1099975040.0000        STREAM LEAKAGE     =           9.5421
        UZF RECHARGE     =           0.0000          UZF RECHARGE     =           0.0000
               GW ET     =    17343536.0000                 GW ET     =           0.0000
     SURFACE LEAKAGE     =           0.0000       SURFACE LEAKAGE     =           0.0000
           AG WELLS      =  1220496256.0000             AG WELLS      =           7.1915

               TOTAL OUT =  3059766272.0000                 TOTAL OUT =          17.9058

                IN - OUT =       -1024.0000                  IN - OUT =       1.2627E-03

     PERCENT DISCREPANCY =          -0.00         PERCENT DISCREPANCY =           0.01






         TIME SUMMARY AT END OF TIME STEP   30 IN STRESS PERIOD   42
                    SECONDS     MINUTES      HOURS       DAYS        YEARS
                    -----------------------------------------------------------
   TIME STEP LENGTH  87667.      1461.1      24.352      1.0147     2.77799E-03
 STRESS PERIOD TIME 2.63000E+06  43833.      730.56      30.440     8.33397E-02
         TOTAL TIME 1.07916E+08 1.79859E+06  29977.      1249.0      3.4196    
1
1
                            STRESS PERIOD NO.   43, LENGTH =   2630000.    
                            -----------------------------------------------

                              NUMBER OF TIME STEPS =    30

                               MULTIPLIER FOR DELT =     1.000

                            INITIAL TIME STEP SIZE =   87666.66    

 REUSING NON-PARAMETER GHB CELLS FROM LAST STRESS PERIOD

      2 GHB CELLS

 REUSING STREAM SEGMENT DATA FROM LAST STRESS PERIOD



            AREAL INFILTRATION RATE
 READING ON UNIT   19 WITH FORMAT: (10F4.0)            

            1           2           3           4           5           6           7           8           9          10
 ........................................................................................................................
   1   1.2000E-09   0.000       0.000       0.000       0.000       0.000       0.000       0.000       0.000       0.000    
   2   2.1000E-09  2.0000E-09  8.0000E-10  8.5000E-09   0.000       0.000       0.000       0.000       0.000       0.000    
   3   5.0000E-10  1.1000E-09  8.8000E-09  5.5000E-09   0.000       0.000       0.000       0.000       0.000       0.000    
   4   8.5000E-09  1.1000E-09  1.1000E-09  1.1000E-09  2.0000E-09   0.000       0.000       0.000       0.000       0.000    
   5   8.5000E-09  1.1000E-09  1.1000E-09  1.1000E-09  1.1000E-09   0.000       0.000       0.000       0.000       0.000    
   6   8.5000E-09  5.2000E-09  2.1000E-09  1.1000E-09  1.5000E-09   0.000       0.000       0.000       0.000       0.000    
   7   8.5000E-09  5.2000E-09  2.1000E-09  1.2000E-09  2.0000E-09   0.000       0.000       0.000       0.000       0.000    
   8   5.0000E-10  5.2000E-09  2.1000E-09  1.2000E-09  5.0000E-09   0.000       0.000       0.000       0.000       0.000    
   9   5.0000E-10  5.2000E-09  2.1000E-09  1.2000E-09  5.0000E-09   0.000       0.000       0.000       0.000       0.000    
  10   5.0000E-10  5.2000E-09  2.1000E-09  1.2000E-09  5.8000E-09   0.000       0.000       0.000       0.000       0.000    
  11   1.0000E-10  1.1000E-09  1.1000E-09  1.2000E-09  5.0000E-09   0.000       0.000       0.000       0.000       0.000    
  12   1.1000E-09  1.1000E-09  1.1000E-09  1.1000E-09  2.0000E-09   0.000       0.000       0.000       0.000       0.000    
  13   1.1000E-09  2.2000E-09  2.2000E-09  2.1000E-09  1.0000E-09   0.000       0.000       0.000       0.000       0.000    
  14   2.0000E-10  5.5000E-09  5.5000E-09  5.2000E-09  1.0000E-09   0.000       0.000       0.000       0.000       0.000    
  15    0.000      8.8000E-09  8.8000E-09   0.000       0.000       0.000       0.000       0.000       0.000       0.000    

                  ET RATE =  1.500000E-07

 USING ET EXTINCTION DEPTH FROM PREVIOUS STRESS PERIOD. CURRENT PERIOD IS:      43

 USING EXTINCTION WATER CONTENT FROM PREVIOUS STRESS PERIOD. CURRENT PERIOD IS:      43

 USING AIR ENTRY PRESSURE FROM PREVIOUS STRESS PERIOD. CURRENT PERIOD IS:      43

 USING ROOT PRESSURE HEAD FROM PREVIOUS STRESS PERIOD. CURRENT PERIOD IS:      43

 USING ROOT ACTIVITY FROM PREVIOUS STRESS PERIOD. CURRENT PERIOD IS:      43

 PROCESSING AG STRESS PERIOD DATA

 READING AG STRESS PERIOD DATA

 READING IRRIGATION WELL

 END PROCESSING AG STRESS PERIOD DATA OPTIONS
 
 SOLVING FOR HEAD 
                                                   Max.-Head-Change                         Max.-Flux-Residual
  Residual-Control   Outer-Iter.   Inner-Iter.     Column Row Layer    Maximum-Head-Change  Column Row Layer    Maximum-Flux-Residual          L2-NORM 
          0                 1           2             4    7     1      -0.5585073011E-01       4    7    1        -0.2919840757E+01      0.6950616305E+01
          0                 2           2             4    7     1       0.5432724469E-02       4    7    1         0.2919823094E+00      0.6950542796E+00
          0                 3           2             4    7     1      -0.3699529536E-03       4    7    1        -0.2043902336E-01      0.4865445637E-01
          0                 4           1             4    7     1       0.1471656912E-04       4    7    1         0.8357187380E-03      0.1989390045E-02

    ------------------------------------------------
       NWT REQUIRED            4 OUTER ITERATIONS 
       AND A TOTAL OF          7 INNER ITERATIONS.
    ------------------------------------------------

 NO OUTPUT CONTROL FOR STRESS PERIOD   43   TIME STEP    1
 
 SOLVING FOR HEAD 
                                                   Max.-Head-Change                         Max.-Flux-Residual
  Residual-Control   Outer-Iter.   Inner-Iter.     Column Row Layer    Maximum-Head-Change  Column Row Layer    Maximum-Flux-Residual          L2-NORM 
          0                 1           2             4    7     1      -0.5509758666E-01       4    7    1        -0.2881623273E+01      0.6765587196E+01
          0                 2           2             4    7     1       0.5359462114E-02       4    7    1         0.2881604193E+00      0.6765517713E+00
          0                 3           2             4    7     1      -0.3649640786E-03       4    7    1        -0.2017149227E-01      0.4735927655E-01
          0                 4           1             4    7     1       0.1451805679E-04       4    7    1         0.8247766943E-03      0.1936414615E-02

    ------------------------------------------------
       NWT REQUIRED            4 OUTER ITERATIONS 
       AND A TOTAL OF          7 INNER ITERATIONS.
    ------------------------------------------------

 NO OUTPUT CONTROL FOR STRESS PERIOD   43   TIME STEP    2
 
 SOLVING FOR HEAD 
                                                   Max.-Head-Change                         Max.-Flux-Residual
  Residual-Control   Outer-Iter.   Inner-Iter.     Column Row Layer    Maximum-Head-Change  Column Row Layer    Maximum-Flux-Residual          L2-NORM 
          0                 1           2             4    7     1      -0.5473061958E-01       4    7    1        -0.2863486691E+01      0.6651803707E+01
          0                 2           2             4    7     1       0.5323764140E-02       4    7    1         0.2863466159E+00      0.6651736405E+00
          0                 3           2             4    7     1      -0.3625331996E-03       4    7    1        -0.2004452737E-01      0.4656280717E-01
          0                 4           1             4    7     1       0.1442132969E-04       4    7    1         0.8195838193E-03      0.1903841634E-02

    ------------------------------------------------
       NWT REQUIRED            4 OUTER ITERATIONS 
       AND A TOTAL OF          7 INNER ITERATIONS.
    ------------------------------------------------

 NO OUTPUT CONTROL FOR STRESS PERIOD   43   TIME STEP    3
 
 SOLVING FOR HEAD 
                                                   Max.-Head-Change                         Max.-Flux-Residual
  Residual-Control   Outer-Iter.   Inner-Iter.     Column Row Layer    Maximum-Head-Change  Column Row Layer    Maximum-Flux-Residual          L2-NORM 
          0                 1           2             4    7     1      -0.5434682635E-01       4    7    1        -0.2844384136E+01      0.6543032531E+01
          0                 2           2             4    7     1       0.5286429687E-02       4    7    1         0.2844362321E+00      0.6542966604E+00
          0                 3           2             4    7     1      -0.3599908795E-03       4    7    1        -0.1991080166E-01      0.4580141389E-01
          0                 4           1             4    7     1       0.1432016856E-04       4    7    1         0.8141144194E-03      0.1872700106E-02

    ------------------------------------------------
       NWT REQUIRED            4 OUTER ITERATIONS 
       AND A TOTAL OF          7 INNER ITERATIONS.
    ------------------------------------------------

 NO OUTPUT CONTROL FOR STRESS PERIOD   43   TIME STEP    4
 
 SOLVING FOR HEAD 
                                                   Max.-Head-Change                         Max.-Flux-Residual
  Residual-Control   Outer-Iter.   Inner-Iter.     Column Row Layer    Maximum-Head-Change  Column Row Layer    Maximum-Flux-Residual          L2-NORM 
          0                 1           2             4    7     1      -0.5394796648E-01       4    7    1        -0.2824412256E+01      0.6438961469E+01
          0                 2           2             4    7     1       0.5247629893E-02       4    7    1         0.2824389316E+00      0.6438896797E+00
          0                 3           2             4    7     1      -0.3573487731E-03       4    7    1        -0.1977099162E-01      0.4507291721E-01
          0                 4           1             4    7     1       0.1421503657E-04       4    7    1         0.8083961809E-03      0.1842904991E-02

    ------------------------------------------------
       NWT REQUIRED            4 OUTER ITERATIONS 
       AND A TOTAL OF          7 INNER ITERATIONS.
    ------------------------------------------------

 NO OUTPUT CONTROL FOR STRESS PERIOD   43   TIME STEP    5
 
 SOLVING FOR HEAD 
                                                   Max.-Head-Change                         Max.-Flux-Residual
  Residual-Control   Outer-Iter.   Inner-Iter.     Column Row Layer    Maximum-Head-Change  Column Row Layer    Maximum-Flux-Residual          L2-NORM 
          0                 1           2             4    7     1      -0.5353540713E-01       4    7    1        -0.2803646935E+01      0.6339273213E+01
          0                 2           2             4    7     1       0.5207497718E-02       4    7    1         0.2803623013E+00      0.6339210638E+00
          0                 3           2             4    7     1      -0.3546159281E-03       4    7    1        -0.1962562837E-01      0.4437510269E-01
          0                 4           1             4    7     1       0.1410629395E-04       4    7    1         0.8024508061E-03      0.1814365770E-02

    ------------------------------------------------
       NWT REQUIRED            4 OUTER ITERATIONS 
       AND A TOTAL OF          7 INNER ITERATIONS.
    ------------------------------------------------

 NO OUTPUT CONTROL FOR STRESS PERIOD   43   TIME STEP    6
 
 SOLVING FOR HEAD 
                                                   Max.-Head-Change                         Max.-Flux-Residual
  Residual-Control   Outer-Iter.   Inner-Iter.     Column Row Layer    Maximum-Head-Change  Column Row Layer    Maximum-Flux-Residual          L2-NORM 
          0                 1           2             4    7     1      -0.5311097689E-01       4    7    1        -0.2782189041E+01      0.6243705563E+01
          0                 2           2             4    7     1       0.5166224125E-02       4    7    1         0.2782164271E+00      0.6249862900E+00
          0                 3           2             4    7     1      -0.3518053592E-03       4    7    1        -0.1947541789E-01      0.4374965336E-01
          0                 4           1             4    7     1       0.1399445888E-04       4    7    1         0.7963071891E-03      0.1788784573E-02

    ------------------------------------------------
       NWT REQUIRED            4 OUTER ITERATIONS 
       AND A TOTAL OF          7 INNER ITERATIONS.
    ------------------------------------------------

 NO OUTPUT CONTROL FOR STRESS PERIOD   43   TIME STEP    7
 
 SOLVING FOR HEAD 
                                                   Max.-Head-Change                         Max.-Flux-Residual
  Residual-Control   Outer-Iter.   Inner-Iter.     Column Row Layer    Maximum-Head-Change  Column Row Layer    Maximum-Flux-Residual          L2-NORM 
          0                 1           2             4    7     1      -0.5267577224E-01       4    7    1        -0.2760101993E+01      0.6151472350E+01
          0                 2           2             4    7     1       0.5123877240E-02       4    7    1         0.2760076497E+00      0.6151437333E+00
          0                 3           2             4    7     1      -0.3489217041E-03       4    7    1        -0.1932080412E-01      0.4306067327E-01
          0                 4           1             4    7     1       0.1387971534E-04       4    7    1         0.7899834684E-03      0.1760607542E-02

    ------------------------------------------------
       NWT REQUIRED            4 OUTER ITERATIONS 
       AND A TOTAL OF          7 INNER ITERATIONS.
    ------------------------------------------------

 NO OUTPUT CONTROL FOR STRESS PERIOD   43   TIME STEP    8
 
 SOLVING FOR HEAD 
                                                   Max.-Head-Change                         Max.-Flux-Residual
  Residual-Control   Outer-Iter.   Inner-Iter.     Column Row Layer    Maximum-Head-Change  Column Row Layer    Maximum-Flux-Residual          L2-NORM 
          0                 1           2             4    7     1      -0.5223117664E-01       4    7    1        -0.2737459809E+01      0.6062738560E+01
          0                 2           2             4    7     1       0.5080629312E-02       4    7    1         0.2737433698E+00      0.6062703577E+00
          0                 3           2             4    7     1      -0.3459766891E-03       4    7    1        -0.1916230503E-01      0.4243953702E-01
          0                 4           1             4    7     1       0.1376253041E-04       4    7    1         0.7835008391E-03      0.1735204297E-02

    ------------------------------------------------
       NWT REQUIRED            4 OUTER ITERATIONS 
       AND A TOTAL OF          7 INNER ITERATIONS.
    ------------------------------------------------

 NO OUTPUT CONTROL FOR STRESS PERIOD   43   TIME STEP    9
 
 SOLVING FOR HEAD 
                                                   Max.-Head-Change                         Max.-Flux-Residual
  Residual-Control   Outer-Iter.   Inner-Iter.     Column Row Layer    Maximum-Head-Change  Column Row Layer    Maximum-Flux-Residual          L2-NORM 
          0                 1           2             4    7     1      -0.5177855847E-01       4    7    1        -0.2714339045E+01      0.5977474095E+01
          0                 2           2             4    7     1       0.5036601159E-02       4    7    1         0.2714312422E+00      0.5977439214E+00
          0                 3           2             4    7     1      -0.3429785425E-03       4    7    1        -0.1900045652E-01      0.4184268811E-01
          0                 4           1             4    7     1       0.1364323117E-04       4    7    1         0.7768812272E-03      0.1710795415E-02

    ------------------------------------------------
       NWT REQUIRED            4 OUTER ITERATIONS 
       AND A TOTAL OF          7 INNER ITERATIONS.
    ------------------------------------------------

 NO OUTPUT CONTROL FOR STRESS PERIOD   43   TIME STEP   10
 
 SOLVING FOR HEAD 
                                                   Max.-Head-Change                         Max.-Flux-Residual
  Residual-Control   Outer-Iter.   Inner-Iter.     Column Row Layer    Maximum-Head-Change  Column Row Layer    Maximum-Flux-Residual          L2-NORM 
          0                 1           2             4    7     1      -0.5131907775E-01       4    7    1        -0.2690804232E+01      0.5895463196E+01
          0                 2           2             4    7     1       0.4991905604E-02       4    7    1         0.2690777191E+00      0.5895428492E+00
          0                 3           2             4    7     1      -0.3399349469E-03       4    7    1        -0.1883571021E-01      0.4126860980E-01
          0                 4           1             4    7     1       0.1352212384E-04       4    7    1         0.7701430952E-03      0.1687314688E-02

    ------------------------------------------------
       NWT REQUIRED            4 OUTER ITERATIONS 
       AND A TOTAL OF          7 INNER ITERATIONS.
    ------------------------------------------------

 NO OUTPUT CONTROL FOR STRESS PERIOD   43   TIME STEP   11
 
 SOLVING FOR HEAD 
                                                   Max.-Head-Change                         Max.-Flux-Residual
  Residual-Control   Outer-Iter.   Inner-Iter.     Column Row Layer    Maximum-Head-Change  Column Row Layer    Maximum-Flux-Residual          L2-NORM 
          0                 1           2             4    7     1      -0.5085354769E-01       4    7    1        -0.2666900416E+01      0.5816512737E+01
          0                 2           2             4    7     1       0.4946621744E-02       4    7    1         0.2666873043E+00      0.5816478205E+00
          0                 3           2             4    7     1      -0.3368512883E-03       4    7    1        -0.1866838142E-01      0.4071595542E-01
          0                 4           1             4    7     1       0.1339942211E-04       4    7    1         0.7632993315E-03      0.1664712532E-02

    ------------------------------------------------
       NWT REQUIRED            4 OUTER ITERATIONS 
       AND A TOTAL OF          7 INNER ITERATIONS.
    ------------------------------------------------

 NO OUTPUT CONTROL FOR STRESS PERIOD   43   TIME STEP   12
 
 SOLVING FOR HEAD 
                                                   Max.-Head-Change                         Max.-Flux-Residual
  Residual-Control   Outer-Iter.   Inner-Iter.     Column Row Layer    Maximum-Head-Change  Column Row Layer    Maximum-Flux-Residual          L2-NORM 
          0                 1           2             4    7     1      -0.5038312118E-01       4    7    1        -0.2642691698E+01      0.5740449550E+01
          0                 2           2             4    7     1       0.4900861708E-02       4    7    1         0.2642664073E+00      0.5740415214E+00
          0                 3           2             4    7     1      -0.3337352035E-03       4    7    1        -0.1849891881E-01      0.4018351361E-01
          0                 4           1             4    7     1       0.1327543026E-04       4    7    1         0.7563683087E-03      0.1642935994E-02

    ------------------------------------------------
       NWT REQUIRED            4 OUTER ITERATIONS 
       AND A TOTAL OF          7 INNER ITERATIONS.
    ------------------------------------------------

 NO OUTPUT CONTROL FOR STRESS PERIOD   43   TIME STEP   13
 
 SOLVING FOR HEAD 
                                                   Max.-Head-Change                         Max.-Flux-Residual
  Residual-Control   Outer-Iter.   Inner-Iter.     Column Row Layer    Maximum-Head-Change  Column Row Layer    Maximum-Flux-Residual          L2-NORM 
          0                 1           2             4    7     1      -0.4990886203E-01       4    7    1        -0.2618237376E+01      0.5667101932E+01
          0                 2           2             4    7     1       0.4854728966E-02       4    7    1         0.2618209570E+00      0.5667067946E+00
          0                 3           2             4    7     1      -0.3305937372E-03       4    7    1        -0.1832773738E-01      0.3967008157E-01
          0                 4           1             4    7     1       0.1315042816E-04       4    7    1         0.7493669777E-03      0.1622126388E-02

    ------------------------------------------------
       NWT REQUIRED            4 OUTER ITERATIONS 
       AND A TOTAL OF          7 INNER ITERATIONS.
    ------------------------------------------------

 NO OUTPUT CONTROL FOR STRESS PERIOD   43   TIME STEP   14
 
 SOLVING FOR HEAD 
                                                   Max.-Head-Change                         Max.-Flux-Residual
  Residual-Control   Outer-Iter.   Inner-Iter.     Column Row Layer    Maximum-Head-Change  Column Row Layer    Maximum-Flux-Residual          L2-NORM 
          0                 1           2             4    7     1      -0.4943136531E-01       4    7    1        -0.2593570918E+01      0.5596311943E+01
          0                 2           2             4    7     1       0.4808281393E-02       4    7    1         0.2593542996E+00      0.5596278282E+00
          0                 3           2             4    7     1      -0.3274308312E-03       4    7    1        -0.1815507139E-01      0.3917455190E-01
          0                 4           1             4    7     1       0.1302457332E-04       4    7    1         0.7423049237E-03      0.1601673192E-02

    ------------------------------------------------
       NWT REQUIRED            4 OUTER ITERATIONS 
       AND A TOTAL OF          7 INNER ITERATIONS.
    ------------------------------------------------

 NO OUTPUT CONTROL FOR STRESS PERIOD   43   TIME STEP   15
 
 SOLVING FOR HEAD 
                                                   Max.-Head-Change                         Max.-Flux-Residual
  Residual-Control   Outer-Iter.   Inner-Iter.     Column Row Layer    Maximum-Head-Change  Column Row Layer    Maximum-Flux-Residual          L2-NORM 
          0                 1           2             4    7     1      -0.4895171946E-01       4    7    1        -0.2568752416E+01      0.5527958553E+01
          0                 2           2             4    7     1       0.4761624855E-02       4    7    1         0.2568724436E+00      0.5527925258E+00
          0                 3           2             4    7     1      -0.3242536948E-03       4    7    1        -0.1798134146E-01      0.3869607862E-01
          0                 4           1             4    7     1       0.1289815239E-04       4    7    1         0.7351993631E-03      0.1582105150E-02

    ------------------------------------------------
       NWT REQUIRED            4 OUTER ITERATIONS 
       AND A TOTAL OF          7 INNER ITERATIONS.
    ------------------------------------------------

 NO OUTPUT CONTROL FOR STRESS PERIOD   43   TIME STEP   16
 
 SOLVING FOR HEAD 
                                                   Max.-Head-Change                         Max.-Flux-Residual
  Residual-Control   Outer-Iter.   Inner-Iter.     Column Row Layer    Maximum-Head-Change  Column Row Layer    Maximum-Flux-Residual          L2-NORM 
          0                 1           2             4    7     1      -0.4847039498E-01       4    7    1        -0.2543808832E+01      0.5461896488E+01
          0                 2           2             4    7     1       0.4714805112E-02       4    7    1         0.2543780849E+00      0.5461863567E+00
          0                 3           2             4    7     1      -0.3210654439E-03       4    7    1        -0.1780673628E-01      0.3823364592E-01
          0                 4           1             4    7     1       0.1277128880E-04       4    7    1         0.7280580051E-03      0.1563221422E-02

    ------------------------------------------------
       NWT REQUIRED            4 OUTER ITERATIONS 
       AND A TOTAL OF          7 INNER ITERATIONS.
    ------------------------------------------------

 NO OUTPUT CONTROL FOR STRESS PERIOD   43   TIME STEP   17
 
 SOLVING FOR HEAD 
                                                   Max.-Head-Change                         Max.-Flux-Residual
  Residual-Control   Outer-Iter.   Inner-Iter.     Column Row Layer    Maximum-Head-Change  Column Row Layer    Maximum-Flux-Residual          L2-NORM 
          0                 1           2             4    7     1      -0.4798822273E-01       4    7    1        -0.2518786486E+01      0.5398001816E+01
          0                 2           2             4    7     1       0.4667902975E-02       4    7    1         0.2518758547E+00      0.5397969221E+00
          0                 3           2             4    7     1      -0.3178715814E-03       4    7    1        -0.1763158006E-01      0.3778638344E-01
          0                 4           1             4    7     1       0.1264420163E-04       4    7    1         0.7208940865E-03      0.1544906448E-02

    ------------------------------------------------
       NWT REQUIRED            4 OUTER ITERATIONS 
       AND A TOTAL OF          7 INNER ITERATIONS.
    ------------------------------------------------

 NO OUTPUT CONTROL FOR STRESS PERIOD   43   TIME STEP   18
 
 SOLVING FOR HEAD 
                                                   Max.-Head-Change                         Max.-Flux-Residual
  Residual-Control   Outer-Iter.   Inner-Iter.     Column Row Layer    Maximum-Head-Change  Column Row Layer    Maximum-Flux-Residual          L2-NORM 
          0                 1           2             4    7     1      -0.4750570309E-01       4    7    1        -0.2493713606E+01      0.5336171906E+01
          0                 2           2             4    7     1       0.4620967109E-02       4    7    1         0.2493685755E+00      0.5336139816E+00
          0                 3           2             4    7     1      -0.3146754213E-03       4    7    1        -0.1745607033E-01      0.3735357637E-01
          0                 4           1             4    7     1       0.1251702362E-04       4    7    1         0.7137157340E-03      0.1527200385E-02

    ------------------------------------------------
       NWT REQUIRED            4 OUTER ITERATIONS 
       AND A TOTAL OF          7 INNER ITERATIONS.
    ------------------------------------------------

 NO OUTPUT CONTROL FOR STRESS PERIOD   43   TIME STEP   19
 
 SOLVING FOR HEAD 
                                                   Max.-Head-Change                         Max.-Flux-Residual
  Residual-Control   Outer-Iter.   Inner-Iter.     Column Row Layer    Maximum-Head-Change  Column Row Layer    Maximum-Flux-Residual          L2-NORM 
          0                 1           2             4    7     1      -0.4702369142E-01       4    7    1        -0.2468638052E+01      0.5276295629E+01
          0                 2           2             4    7     1       0.4574080713E-02       4    7    1         0.2468610329E+00      0.5276263960E+00
          0                 3           2             4    7     1      -0.3114826297E-03       4    7    1        -0.1728054215E-01      0.3693444150E-01
          0                 4           1             4    7     1       0.1238997951E-04       4    7    1         0.7065366235E-03      0.1510057840E-02

    ------------------------------------------------
       NWT REQUIRED            4 OUTER ITERATIONS 
       AND A TOTAL OF          7 INNER ITERATIONS.
    ------------------------------------------------

 NO OUTPUT CONTROL FOR STRESS PERIOD   43   TIME STEP   20
 
 SOLVING FOR HEAD 
                                                   Max.-Head-Change                         Max.-Flux-Residual
  Residual-Control   Outer-Iter.   Inner-Iter.     Column Row Layer    Maximum-Head-Change  Column Row Layer    Maximum-Flux-Residual          L2-NORM 
          0                 1           2             4    7     1      -0.4654245317E-01       4    7    1        -0.2443574955E+01      0.5218281649E+01
          0                 2           2             4    7     1       0.4527269601E-02       4    7    1         0.2443547393E+00      0.5218250463E+00
          0                 3           2             4    7     1      -0.3082949643E-03       4    7    1        -0.1710510138E-01      0.3652834559E-01
          0                 4           1             4    7     1       0.1226313929E-04       4    7    1         0.6993610943E-03      0.1493451423E-02

    ------------------------------------------------
       NWT REQUIRED            4 OUTER ITERATIONS 
       AND A TOTAL OF          7 INNER ITERATIONS.
    ------------------------------------------------

 NO OUTPUT CONTROL FOR STRESS PERIOD   43   TIME STEP   21
 
 SOLVING FOR HEAD 
                                                   Max.-Head-Change                         Max.-Flux-Residual
  Residual-Control   Outer-Iter.   Inner-Iter.     Column Row Layer    Maximum-Head-Change  Column Row Layer    Maximum-Flux-Residual          L2-NORM 
          0                 1           2             4    7     1      -0.4606275339E-01       4    7    1        -0.2418567057E+01      0.5162039256E+01
          0                 2           2             4    7     1       0.4480608185E-02       4    7    1         0.2418539688E+00      0.5162008477E+00
          0                 3           2             4    7     1      -0.3051174919E-03       4    7    1        -0.1693004718E-01      0.3613465075E-01
          0                 4           1             4    7     1       0.1213670454E-04       4    7    1         0.6922013636E-03      0.1477353290E-02

    ------------------------------------------------
       NWT REQUIRED            4 OUTER ITERATIONS 
       AND A TOTAL OF          7 INNER ITERATIONS.
    ------------------------------------------------

 NO OUTPUT CONTROL FOR STRESS PERIOD   43   TIME STEP   22
 
 SOLVING FOR HEAD 
                                                   Max.-Head-Change                         Max.-Flux-Residual
  Residual-Control   Outer-Iter.   Inner-Iter.     Column Row Layer    Maximum-Head-Change  Column Row Layer    Maximum-Flux-Residual          L2-NORM 
          0                 1           2             4    7     1      -0.4558477859E-01       4    7    1        -0.2393625526E+01      0.5107488750E+01
          0                 2           2             4    7     1       0.4434114604E-02       4    7    1         0.2393598378E+00      0.5107458430E+00
          0                 3           2             4    7     1      -0.3019514481E-03       4    7    1        -0.1675545773E-01      0.3575279562E-01
          0                 4           1             4    7     1       0.1201072467E-04       4    7    1         0.6850606453E-03      0.1461732863E-02

    ------------------------------------------------
       NWT REQUIRED            4 OUTER ITERATIONS 
       AND A TOTAL OF          7 INNER ITERATIONS.
    ------------------------------------------------

 NO OUTPUT CONTROL FOR STRESS PERIOD   43   TIME STEP   23
 
 SOLVING FOR HEAD 
                                                   Max.-Head-Change                         Max.-Flux-Residual
  Residual-Control   Outer-Iter.   Inner-Iter.     Column Row Layer    Maximum-Head-Change  Column Row Layer    Maximum-Flux-Residual          L2-NORM 
          0                 1           2             4    7     1      -0.4510906853E-01       4    7    1        -0.2368780750E+01      0.5054539345E+01
          0                 2           2             4    7     1       0.4387841357E-02       4    7    1         0.2368753847E+00      0.5054509494E+00
          0                 3           2             4    7     1      -0.2988004084E-03       4    7    1        -0.1658154572E-01      0.3538215379E-01
          0                 4           1             4    7     1       0.1188534219E-04       4    7    1         0.6779476453E-03      0.1446575899E-02

    ------------------------------------------------
       NWT REQUIRED            4 OUTER ITERATIONS 
       AND A TOTAL OF          7 INNER ITERATIONS.
    ------------------------------------------------

 NO OUTPUT CONTROL FOR STRESS PERIOD   43   TIME STEP   24
 
 SOLVING FOR HEAD 
                                                   Max.-Head-Change                         Max.-Flux-Residual
  Residual-Control   Outer-Iter.   Inner-Iter.     Column Row Layer    Maximum-Head-Change  Column Row Layer    Maximum-Flux-Residual          L2-NORM 
          0                 1           2             4    7     1      -0.4463586901E-01       4    7    1        -0.2344046826E+01      0.5003119590E+01
          0                 2           2             4    7     1       0.4341812347E-02       4    7    1         0.2344020190E+00      0.5003090189E+00
          0                 3           2             4    7     1      -0.2956659992E-03       4    7    1        -0.1640840978E-01      0.3502221876E-01
          0                 4           1             4    7     1       0.1176062113E-04       4    7    1         0.6708663680E-03      0.1431860214E-02

    ------------------------------------------------
       NWT REQUIRED            4 OUTER ITERATIONS 
       AND A TOTAL OF          7 INNER ITERATIONS.
    ------------------------------------------------

 NO OUTPUT CONTROL FOR STRESS PERIOD   43   TIME STEP   25
 
 SOLVING FOR HEAD 
                                                   Max.-Head-Change                         Max.-Flux-Residual
  Residual-Control   Outer-Iter.   Inner-Iter.     Column Row Layer    Maximum-Head-Change  Column Row Layer    Maximum-Flux-Residual          L2-NORM 
          0                 1           2             4    7     1      -0.4416578993E-01       4    7    1        -0.2319457927E+01      0.4953175396E+01
          0                 2           2             4    7     1       0.4296086897E-02       4    7    1         0.2319431576E+00      0.4953146432E+00
          0                 3           2             4    7     1      -0.2925522613E-03       4    7    1        -0.1623628914E-01      0.3467260537E-01
          0                 4           1             4    7     1       0.1163672253E-04       4    7    1         0.6638266259E-03      0.1417559337E-02

    ------------------------------------------------
       NWT REQUIRED            4 OUTER ITERATIONS 
       AND A TOTAL OF          7 INNER ITERATIONS.
    ------------------------------------------------

 NO OUTPUT CONTROL FOR STRESS PERIOD   43   TIME STEP   26
 
 SOLVING FOR HEAD 
                                                   Max.-Head-Change                         Max.-Flux-Residual
  Residual-Control   Outer-Iter.   Inner-Iter.     Column Row Layer    Maximum-Head-Change  Column Row Layer    Maximum-Flux-Residual          L2-NORM 
          0                 1           2             4    7     1      -0.4369900893E-01       4    7    1        -0.2295024485E+01      0.4904634223E+01
          0                 2           2             4    7     1       0.4250682286E-02       4    7    1         0.2294998436E+00      0.4904605746E+00
          0                 3           2             4    7     1      -0.2894603712E-03       4    7    1        -0.1606525679E-01      0.3433282155E-01
          0                 4           1             4    7     1       0.1151369349E-04       4    7    1         0.6568313986E-03      0.1403663260E-02

    ------------------------------------------------
       NWT REQUIRED            4 OUTER ITERATIONS 
       AND A TOTAL OF          7 INNER ITERATIONS.
    ------------------------------------------------

 NO OUTPUT CONTROL FOR STRESS PERIOD   43   TIME STEP   27
 
 SOLVING FOR HEAD 
                                                   Max.-Head-Change                         Max.-Flux-Residual
  Residual-Control   Outer-Iter.   Inner-Iter.     Column Row Layer    Maximum-Head-Change  Column Row Layer    Maximum-Flux-Residual          L2-NORM 
          0                 1           2             4    7     1      -0.4323579375E-01       4    7    1        -0.2270762061E+01      0.4857431340E+01
          0                 2           2             4    7     1       0.4205624552E-02       4    7    1         0.2270736327E+00      0.4857403329E+00
          0                 3           2             4    7     1      -0.2863921017E-03       4    7    1        -0.1589542166E-01      0.3400240131E-01
          0                 4           1             4    7     1       0.1139160389E-04       4    7    1         0.6498851201E-03      0.1390151083E-02

    ------------------------------------------------
       NWT REQUIRED            4 OUTER ITERATIONS 
       AND A TOTAL OF          7 INNER ITERATIONS.
    ------------------------------------------------

 NO OUTPUT CONTROL FOR STRESS PERIOD   43   TIME STEP   28
 
 SOLVING FOR HEAD 
                                                   Max.-Head-Change                         Max.-Flux-Residual
  Residual-Control   Outer-Iter.   Inner-Iter.     Column Row Layer    Maximum-Head-Change  Column Row Layer    Maximum-Flux-Residual          L2-NORM 
          0                 1           2             4    7     1      -0.4277640586E-01       4    7    1        -0.2246685250E+01      0.4811524329E+01
          0                 2           2             4    7     1       0.4160939126E-02       4    7    1         0.2246659844E+00      0.4811496769E+00
          0                 3           2             4    7     1      -0.2833491853E-03       4    7    1        -0.1572688590E-01      0.3368105454E-01
          0                 4           1             4    7     1       0.1127052362E-04       4    7    1         0.6429920070E-03      0.1377009121E-02

    ------------------------------------------------
       NWT REQUIRED            4 OUTER ITERATIONS 
       AND A TOTAL OF          7 INNER ITERATIONS.
    ------------------------------------------------

 NO OUTPUT CONTROL FOR STRESS PERIOD   43   TIME STEP   29
 
 SOLVING FOR HEAD 
                                                   Max.-Head-Change                         Max.-Flux-Residual
  Residual-Control   Outer-Iter.   Inner-Iter.     Column Row Layer    Maximum-Head-Change  Column Row Layer    Maximum-Flux-Residual          L2-NORM 
          0                 1           2             4    7     1      -0.4232106157E-01       4    7    1        -0.2222807132E+01      0.4766844614E+01
          0                 2           2             4    7     1       0.4116647047E-02       4    7    1         0.2222782064E+00      0.4766817508E+00
          0                 3           2             4    7     1      -0.2803330540E-03       4    7    1        -0.1555974104E-01      0.3336829682E-01
          0                 4           1             4    7     1       0.1115050885E-04       4    7    1         0.6361557753E-03      0.1364219376E-02

    ------------------------------------------------
       NWT REQUIRED            4 OUTER ITERATIONS 
       AND A TOTAL OF          7 INNER ITERATIONS.
    ------------------------------------------------

 NO OUTPUT CONTROL FOR STRESS PERIOD   43   TIME STEP   30



 STREAM LISTING     PERIOD     43   STEP       30

 LAYER ROW COL. STREAM  RCH.  FLOW INTO     FLOW TO   FLOW OUT OF   OVRLND.     DIRECT     STREAM       STREAM     STREAM     STREAM   STREAMBED  STREAMBED
                SEG.NO.  NO.  STRM. RCH.    AQUIFER    STRM. RCH.    RUNOFF     PRECIP       ET          HEAD       DEPTH      WIDTH   CONDCTNC.   GRADIENT

   1    1    1     1     1    1.9000E+01  2.1427E-01   1.8786E+01  0.000E+00  0.000E+00  0.000E+00  1.09413E+03  1.082E+00  1.166E+01  5.249E-02  1.361E+00
   1    2    2     1     2    1.8786E+01  3.3054E-01   1.8455E+01  0.000E+00  0.000E+00  0.000E+00  1.08914E+03  1.077E+00  1.158E+01  8.107E-02  1.359E+00
   1    3    3     1     3    1.8455E+01  2.8064E-01   1.8175E+01  0.000E+00  0.000E+00  0.000E+00  1.08349E+03  1.072E+00  1.149E+01  6.892E-02  1.357E+00
   1    3    4     1     4    1.8175E+01  2.5740E-01   1.7917E+01  0.000E+00  0.000E+00  0.000E+00  1.07848E+03  1.068E+00  1.140E+01  6.328E-02  1.356E+00
   1    4    5     2     1    1.5917E+01  3.0542E-01   1.5612E+01  0.000E+00  0.000E+00  0.000E+00  1.07285E+03  9.157E-01  1.200E+01  7.800E-02  1.305E+00
   1    5    6     2     2    1.5612E+01  2.3438E-01   1.5377E+01  0.000E+00  0.000E+00  0.000E+00  1.06742E+03  9.063E-01  1.200E+01  6.000E-02  1.302E+00
   1    6    6     2     3    1.5377E+01  2.3388E-01   1.5143E+01  0.000E+00  0.000E+00  0.000E+00  1.06269E+03  8.980E-01  1.200E+01  6.000E-02  1.299E+00
   1    7    6     2     4    1.5143E+01  2.3338E-01   1.4910E+01  0.000E+00  0.000E+00  0.000E+00  1.05797E+03  8.897E-01  1.200E+01  6.000E-02  1.297E+00
   1    8    6     2     5    1.4910E+01  2.3289E-01   1.4677E+01  0.000E+00  0.000E+00  0.000E+00  1.05324E+03  8.814E-01  1.200E+01  6.000E-02  1.294E+00
   1    3    5     3     1    2.0000E+00  2.8252E-01   1.7175E+00  0.000E+00  0.000E+00  0.000E+00  1.07555E+03  1.909E+00  9.636E+00  7.227E-02  1.955E+00
   1    3    6     3     2    1.7175E+00  2.4905E-01   1.4684E+00  0.000E+00  0.000E+00  0.000E+00  1.07264E+03  1.727E+00  8.909E+00  6.682E-02  1.864E+00
   1    3    7     3     3    1.4684E+00  1.9718E-01   1.2712E+00  0.000E+00  0.000E+00  0.000E+00  1.06987E+03  1.555E+00  8.218E+00  5.547E-02  1.777E+00
   1    4    8     3     4    1.2712E+00  2.2567E-01   1.0456E+00  0.000E+00  0.000E+00  0.000E+00  1.06682E+03  1.364E+00  7.455E+00  6.709E-02  1.682E+00
   1    5    8     3     5    1.0456E+00  1.5790E-01   8.8768E-01  0.000E+00  0.000E+00  0.000E+00  1.06362E+03  1.164E+00  6.655E+00  4.991E-02  1.582E+00
   1    6    8     3     6    8.8768E-01  5.5980E-02   8.3170E-01  0.000E+00  0.000E+00  0.000E+00  1.06158E+03  1.036E+00  6.145E+00  1.844E-02  1.518E+00
   1    5   10     4     1    1.0000E+01  9.0919E-02   9.9091E+00  0.000E+00  0.000E+00  0.000E+00  1.07836E+03  6.368E-01  1.000E+01  2.500E-02  1.212E+00
   1    5    9     4     2    9.9091E+00  1.8158E-01   9.7275E+00  0.000E+00  0.000E+00  0.000E+00  1.07154E+03  6.315E-01  1.000E+01  5.000E-02  1.211E+00
   1    6    8     4     3    9.7275E+00  1.2689E-01   9.6006E+00  0.000E+00  0.000E+00  0.000E+00  1.06381E+03  6.256E-01  1.000E+01  3.500E-02  1.209E+00
   1    6    8     5     1    1.0432E+01  2.2686E-01   1.0205E+01  0.000E+00  0.000E+00  0.000E+00  1.05868E+03  6.790E-01  1.542E+01  6.166E-02  1.226E+00
   1    7    7     5     2    1.0205E+01  2.7894E-01   9.9265E+00  0.000E+00  0.000E+00  0.000E+00  1.05417E+03  6.732E-01  1.519E+01  7.594E-02  1.224E+00
   1    8    7     5     3    9.9265E+00  1.9221E-01   9.7343E+00  0.000E+00  0.000E+00  0.000E+00  1.04992E+03  6.676E-01  1.497E+01  5.241E-02  1.223E+00
   1    8    6     5     4    9.7343E+00  1.3577E-01   9.5985E+00  0.000E+00  0.000E+00  0.000E+00  1.04691E+03  6.637E-01  1.482E+01  3.706E-02  1.221E+00
   1    9    6     6     1    2.4276E+01  2.5176E-01   2.4024E+01  0.000E+00  0.000E+00  0.000E+00  1.04392E+03  1.196E+00  1.200E+01  6.000E-02  1.399E+00
   1   10    7     6     2    2.4024E+01  2.5131E-01   2.3773E+01  0.000E+00  0.000E+00  0.000E+00  1.03937E+03  1.188E+00  1.200E+01  6.000E-02  1.396E+00
   1   11    7     6     3    2.3773E+01  2.5086E-01   2.3522E+01  0.000E+00  0.000E+00  0.000E+00  1.03482E+03  1.181E+00  1.200E+01  6.000E-02  1.394E+00
   1   12    7     6     4    2.3522E+01  2.5041E-01   2.3271E+01  0.000E+00  0.000E+00  0.000E+00  1.03026E+03  1.173E+00  1.200E+01  6.000E-02  1.391E+00
   1   13    7     6     5    2.3271E+01  1.1016E-02   2.3260E+01  0.000E+00  0.000E+00  0.000E+00  1.02708E+03  1.170E+00  1.200E+01  2.400E-02  1.530E-01
   1   14    9     7     1    1.5000E+02  1.3709E+00   1.4863E+02  0.000E+00  0.000E+00  0.000E+00  1.03987E+03  2.288E+00  5.529E+01  5.593E-01  8.170E-01
   1   13    8     7     2    1.4863E+02  1.9712E+00   1.4666E+02  0.000E+00  0.000E+00  0.000E+00  1.03478E+03  2.279E+00  5.525E+01  6.147E-01  1.069E+00
   1   13    7     7     3    1.4666E+02  1.7134E+00   1.4494E+02  0.000E+00  0.000E+00  0.000E+00  1.02969E+03  2.269E+00  5.521E+01  5.584E-01  1.023E+00
   1   13    6     8     1    1.6820E+02  1.1465E+00   1.6706E+02  0.000E+00  0.000E+00  0.000E+00  1.02481E+03  2.937E+00  4.258E+01  4.339E-01  8.807E-01
   1   13    5     8     2    1.6706E+02  3.8130E-01   1.6668E+02  0.000E+00  0.000E+00  0.000E+00  1.01856E+03  2.932E+00  4.251E+01  4.332E-01  2.934E-01
   1   13    4     8     3    1.6668E+02 -1.7556E+00   1.6843E+02  0.000E+00  0.000E+00  0.000E+00  1.01231E+03  2.936E+00  4.258E+01  4.339E+00 -1.349E-01
   1   13    3     8     4    1.6843E+02 -3.3121E+00   1.7174E+02  0.000E+00  0.000E+00  0.000E+00  1.00608E+03  2.953E+00  4.282E+01  4.363E+00 -2.530E-01
   1   13    2     8     5    1.7174E+02 -2.4923E+00   1.7424E+02  0.000E+00  0.000E+00  0.000E+00  9.99847E+02  2.972E+00  4.309E+01  4.391E+00 -1.892E-01
   1   13    1     8     6    1.7424E+02 -1.9602E+00   1.7620E+02  0.000E+00  0.000E+00  0.000E+00  9.94861E+02  2.986E+00  4.329E+01  2.647E+00 -2.468E-01





UNSATURATED ZONE PACKAGE VOLUMETRIC BUDGET FOR  TIME STEP    30 STRESS PERIOD   43
  ------------------------------------------------------------------------------



     CUMULATIVE VOLUMES      L**3       RATES FOR THIS TIME STEP      L**3/T
     ------------------                 ------------------------

           IN:                                      IN:
           ---                                      ---
        INFILTRATION =  1765571774.0063          INFILTRATION =          26.5535

          OUT:                                     OUT:
          ----                                     ----
              UZF ET =  1639352798.2015                UZF ET =          26.6075
        UZF RECHARGE =     1354063.5456          UZF RECHARGE =           0.0060

            IN - OUT =   124864912.2593              IN - OUT =      -5.9974E-02

          STORAGE:                                 STORAGE:
          --------                                 --------
      STORAGE CHANGE =   124865840.0555        STORAGE CHANGE =      -5.9975E-02

 PERCENT DISCREPANCY IS DIFFERENCE BETWEEN IN-OUT MINUS CHANGE IN STORAGE
 DIVIDED BY THE AVERAGE OF IN AND OUT TIMES 100

 PERCENT DISCREPANCY =          -0.00     PERCENT DISCREPANCY =           0.00






1
  VOLUMETRIC BUDGET FOR AGRICULTURAL FIELDS AT TIME STEP   30, STRESS PERIOD  43
  ------------------------------------------------------------------------------

     CUMULATIVE VOLUMES      L**3       RATES FOR THIS TIME STEP      L**3/T
     ------------------                 ------------------------

           IN:                                      IN:
           ---                                      ---
               AG WELLS  =  1278646016.0000                 AG WELLS  =          22.1460
      DIVERSION SEGMENTS =           0.0000        DIVERSION SEGMENTS =           0.0000
           GW IRRIGATION =           0.0000             GW IRRIGATION =           0.0000
           SW IRRIGATION =           0.0000             SW IRRIGATION =           0.0000
        SYSTEM LOSSES GW =           0.0000          SYSTEM LOSSES GW =           0.0000
        SYSTEM LOSSES SW =           0.0000          SYSTEM LOSSES SW =           0.0000

                TOTAL IN =  1278646016.0000                  TOTAL IN =          22.1460

          OUT:                                     OUT:
          ----                                     ----
               AG WELLS  =           0.0000                 AG WELLS  =           0.0000
      DIVERSION SEGMENTS =           0.0000        DIVERSION SEGMENTS =           0.0000
           GW IRRIGATION =  1278646016.0000             GW IRRIGATION =          22.1460
           SW IRRIGATION =           0.0000             SW IRRIGATION =           0.0000
        SYSTEM LOSSES GW =           0.0000          SYSTEM LOSSES GW =           0.0000
        SYSTEM LOSSES SW =           0.0000          SYSTEM LOSSES SW =           0.0000

               TOTAL OUT =  1278646016.0000                 TOTAL OUT =          22.1460

                IN - OUT =           0.0000                  IN - OUT =           0.0000

     PERCENT DISCREPANCY =           0.00         PERCENT DISCREPANCY =           0.00



1
  VOLUMETRIC BUDGET FOR ENTIRE MODEL AT END OF TIME STEP   30, STRESS PERIOD  43
  ------------------------------------------------------------------------------

     CUMULATIVE VOLUMES      L**3       RATES FOR THIS TIME STEP      L**3/T
     ------------------                 ------------------------

           IN:                                      IN:
           ---                                      ---
             STORAGE     =  1758283904.0000               STORAGE     =          19.3722
       CONSTANT HEAD     =           0.0000         CONSTANT HEAD     =           0.0000
     HEAD DEP BOUNDS     =    31627784.0000       HEAD DEP BOUNDS     =           0.2881
      STREAM LEAKAGE     =  1353196928.0000        STREAM LEAKAGE     =          12.3229
        UZF RECHARGE     =     1354062.6250          UZF RECHARGE     =       5.9575E-03
               GW ET     =           0.0000                 GW ET     =           0.0000
     SURFACE LEAKAGE     =           0.0000       SURFACE LEAKAGE     =           0.0000
           AG WELLS      =           0.0000             AG WELLS      =           0.0000

                TOTAL IN =  3144462592.0000                  TOTAL IN =          31.9892

          OUT:                                     OUT:
          ----                                     ----
             STORAGE     =   691164096.0000               STORAGE     =       3.4214E-02
       CONSTANT HEAD     =           0.0000         CONSTANT HEAD     =           0.0000
     HEAD DEP BOUNDS     =    32273094.0000       HEAD DEP BOUNDS     =           0.2889
      STREAM LEAKAGE     =  1125036928.0000        STREAM LEAKAGE     =           9.5202
        UZF RECHARGE     =           0.0000          UZF RECHARGE     =           0.0000
               GW ET     =    17343536.0000                 GW ET     =           0.0000
     SURFACE LEAKAGE     =           0.0000       SURFACE LEAKAGE     =           0.0000
           AG WELLS      =  1278646016.0000             AG WELLS      =          22.1460

               TOTAL OUT =  3144463616.0000                 TOTAL OUT =          31.9893

                IN - OUT =       -1024.0000                  IN - OUT =      -6.6757E-05

     PERCENT DISCREPANCY =          -0.00         PERCENT DISCREPANCY =          -0.00






         TIME SUMMARY AT END OF TIME STEP   30 IN STRESS PERIOD   43
                    SECONDS     MINUTES      HOURS       DAYS        YEARS
                    -----------------------------------------------------------
   TIME STEP LENGTH  87667.      1461.1      24.352      1.0147     2.77799E-03
 STRESS PERIOD TIME 2.63000E+06  43833.      730.56      30.440     8.33397E-02
         TOTAL TIME 1.10545E+08 1.84242E+06  30707.      1279.5      3.5030    
1
1
                            STRESS PERIOD NO.   44, LENGTH =   2630000.    
                            -----------------------------------------------

                              NUMBER OF TIME STEPS =    30

                               MULTIPLIER FOR DELT =     1.000

                            INITIAL TIME STEP SIZE =   87666.66    

 REUSING NON-PARAMETER GHB CELLS FROM LAST STRESS PERIOD

      2 GHB CELLS

 REUSING STREAM SEGMENT DATA FROM LAST STRESS PERIOD



            AREAL INFILTRATION RATE
 READING ON UNIT   19 WITH FORMAT: (10F4.0)            

            1           2           3           4           5           6           7           8           9          10
 ........................................................................................................................
   1   1.2000E-09   0.000       0.000       0.000       0.000       0.000       0.000       0.000       0.000       0.000    
   2   2.1000E-09  2.0000E-09  8.0000E-10  8.5000E-09   0.000       0.000       0.000       0.000       0.000       0.000    
   3   5.0000E-10  1.1000E-09  8.8000E-09  5.5000E-09   0.000       0.000       0.000       0.000       0.000       0.000    
   4   8.5000E-09  1.1000E-09  1.1000E-09  1.1000E-09  2.0000E-09   0.000       0.000       0.000       0.000       0.000    
   5   8.5000E-09  1.1000E-09  1.1000E-09  1.1000E-09  1.1000E-09   0.000       0.000       0.000       0.000       0.000    
   6   8.5000E-09  5.2000E-09  2.1000E-09  1.1000E-09  1.5000E-09   0.000       0.000       0.000       0.000       0.000    
   7   8.5000E-09  5.2000E-09  2.1000E-09  1.2000E-09  2.0000E-09   0.000       0.000       0.000       0.000       0.000    
   8   5.0000E-10  5.2000E-09  2.1000E-09  1.2000E-09  5.0000E-09   0.000       0.000       0.000       0.000       0.000    
   9   5.0000E-10  5.2000E-09  2.1000E-09  1.2000E-09  5.0000E-09   0.000       0.000       0.000       0.000       0.000    
  10   5.0000E-10  5.2000E-09  2.1000E-09  1.2000E-09  5.8000E-09   0.000       0.000       0.000       0.000       0.000    
  11   1.0000E-10  1.1000E-09  1.1000E-09  1.2000E-09  5.0000E-09   0.000       0.000       0.000       0.000       0.000    
  12   1.1000E-09  1.1000E-09  1.1000E-09  1.1000E-09  2.0000E-09   0.000       0.000       0.000       0.000       0.000    
  13   1.1000E-09  2.2000E-09  2.2000E-09  2.1000E-09  1.0000E-09   0.000       0.000       0.000       0.000       0.000    
  14   2.0000E-10  5.5000E-09  5.5000E-09  5.2000E-09  1.0000E-09   0.000       0.000       0.000       0.000       0.000    
  15    0.000      8.8000E-09  8.8000E-09   0.000       0.000       0.000       0.000       0.000       0.000       0.000    

                  ET RATE =  4.000000E-07

 USING ET EXTINCTION DEPTH FROM PREVIOUS STRESS PERIOD. CURRENT PERIOD IS:      44

 USING EXTINCTION WATER CONTENT FROM PREVIOUS STRESS PERIOD. CURRENT PERIOD IS:      44

 USING AIR ENTRY PRESSURE FROM PREVIOUS STRESS PERIOD. CURRENT PERIOD IS:      44

 USING ROOT PRESSURE HEAD FROM PREVIOUS STRESS PERIOD. CURRENT PERIOD IS:      44

 USING ROOT ACTIVITY FROM PREVIOUS STRESS PERIOD. CURRENT PERIOD IS:      44

 PROCESSING AG STRESS PERIOD DATA

 READING AG STRESS PERIOD DATA

 READING IRRIGATION WELL

 END PROCESSING AG STRESS PERIOD DATA OPTIONS
 
 SOLVING FOR HEAD 
                                                   Max.-Head-Change                         Max.-Flux-Residual
  Residual-Control   Outer-Iter.   Inner-Iter.     Column Row Layer    Maximum-Head-Change  Column Row Layer    Maximum-Flux-Residual          L2-NORM 
          0                 1           2             4    7     1      -0.1615870151E+00       4    7    1        -0.8449138686E+01      0.1978807461E+02
          0                 2           2             4    7     1       0.1571776604E-01       4    7    1         0.8448976377E+00      0.1978781033E+01
          0                 3           2             4    7     1      -0.1070323986E-02       4    7    1        -0.5914301375E-01      0.1385149808E+00
          0                 4           1             4    7     1       0.4258918176E-04       4    7    1         0.2418951919E-02      0.5665269601E-02

    ------------------------------------------------
       NWT REQUIRED            4 OUTER ITERATIONS 
       AND A TOTAL OF          7 INNER ITERATIONS.
    ------------------------------------------------

 NO OUTPUT CONTROL FOR STRESS PERIOD   44   TIME STEP    1
 
 SOLVING FOR HEAD 
                                                   Max.-Head-Change                         Max.-Flux-Residual
  Residual-Control   Outer-Iter.   Inner-Iter.     Column Row Layer    Maximum-Head-Change  Column Row Layer    Maximum-Flux-Residual          L2-NORM 
          0                 1           2             4    7     1      -0.1604954739E+00       4    7    1        -0.8395199393E+01      0.1944701165E+02
          0                 2           2             4    7     1       0.1561157139E-01       4    7    1         0.8395025267E+00      0.1944674424E+01
          0                 3           2             4    7     1      -0.1063092695E-02       4    7    1        -0.5876536701E-01      0.1361275194E+00
          0                 4           1             4    7     1       0.4230144139E-04       4    7    1         0.2403506109E-02      0.5567622489E-02

    ------------------------------------------------
       NWT REQUIRED            4 OUTER ITERATIONS 
       AND A TOTAL OF          7 INNER ITERATIONS.
    ------------------------------------------------

 NO OUTPUT CONTROL FOR STRESS PERIOD   44   TIME STEP    2
 
 SOLVING FOR HEAD 
                                                   Max.-Head-Change                         Max.-Flux-Residual
  Residual-Control   Outer-Iter.   Inner-Iter.     Column Row Layer    Maximum-Head-Change  Column Row Layer    Maximum-Flux-Residual          L2-NORM 
          0                 1           2             4    7     1      -0.1593736290E+00       4    7    1        -0.8339128503E+01      0.1915166307E+02
          0                 2           2             4    7     1       0.1550243251E-01       4    7    1         0.8338944902E+00      0.1915139321E+01
          0                 3           2             4    7     1      -0.1055660879E-02       4    7    1        -0.5837281325E-01      0.1340600648E+00
          0                 4           1             4    7     1       0.4200572175E-04       4    7    1         0.2387450592E-02      0.5483063699E-02

    ------------------------------------------------
       NWT REQUIRED            4 OUTER ITERATIONS 
       AND A TOTAL OF          7 INNER ITERATIONS.
    ------------------------------------------------

 NO OUTPUT CONTROL FOR STRESS PERIOD   44   TIME STEP    3
 
 SOLVING FOR HEAD 
                                                   Max.-Head-Change                         Max.-Flux-Residual
  Residual-Control   Outer-Iter.   Inner-Iter.     Column Row Layer    Maximum-Head-Change  Column Row Layer    Maximum-Flux-Residual          L2-NORM 
          0                 1           2             4    7     1      -0.1582133249E+00       4    7    1        -0.8280831482E+01      0.1886960827E+02
          0                 2           2             4    7     1       0.1538955438E-01       4    7    1         0.8280639598E+00      0.1886933704E+01
          0                 3           2             4    7     1      -0.1047974416E-02       4    7    1        -0.5796468377E-01      0.1320856713E+00
          0                 4           1             4    7     1       0.4169986963E-04       4    7    1         0.2370758033E-02      0.5402310370E-02

    ------------------------------------------------
       NWT REQUIRED            4 OUTER ITERATIONS 
       AND A TOTAL OF          7 INNER ITERATIONS.
    ------------------------------------------------

 NO OUTPUT CONTROL FOR STRESS PERIOD   44   TIME STEP    4
 
 SOLVING FOR HEAD 
                                                   Max.-Head-Change                         Max.-Flux-Residual
  Residual-Control   Outer-Iter.   Inner-Iter.     Column Row Layer    Maximum-Head-Change  Column Row Layer    Maximum-Flux-Residual          L2-NORM 
          0                 1           2             4    7     1      -0.1570186437E+00       4    7    1        -0.8220533127E+01      0.1859990413E+02
          0                 2           2             4    7     1       0.1527333396E-01       4    7    1         0.8220334063E+00      0.1859963247E+01
          0                 3           2             4    7     1      -0.1040060338E-02       4    7    1        -0.5754255164E-01      0.1301977394E+00
          0                 4           1             4    7     1       0.4138496041E-04       4    7    1         0.2353492752E-02      0.5325094418E-02

    ------------------------------------------------
       NWT REQUIRED            4 OUTER ITERATIONS 
       AND A TOTAL OF          7 INNER ITERATIONS.
    ------------------------------------------------

 NO OUTPUT CONTROL FOR STRESS PERIOD   44   TIME STEP    5
 
 SOLVING FOR HEAD 
                                                   Max.-Head-Change                         Max.-Flux-Residual
  Residual-Control   Outer-Iter.   Inner-Iter.     Column Row Layer    Maximum-Head-Change  Column Row Layer    Maximum-Flux-Residual          L2-NORM 
          0                 1           2             4    7     1      -0.1557936676E+00       4    7    1        -0.8158458724E+01      0.1834169664E+02
          0                 2           2             4    7     1       0.1515416817E-01       4    7    1         0.8158253497E+00      0.1834142535E+01
          0                 3           2             4    7     1      -0.1031945678E-02       4    7    1        -0.5710799333E-01      0.1283902879E+00
          0                 4           1             4    7     1       0.4106207020E-04       4    7    1         0.2335719277E-02      0.5251169303E-02

    ------------------------------------------------
       NWT REQUIRED            4 OUTER ITERATIONS 
       AND A TOTAL OF          7 INNER ITERATIONS.
    ------------------------------------------------

 NO OUTPUT CONTROL FOR STRESS PERIOD   44   TIME STEP    6
 
 SOLVING FOR HEAD 
                                                   Max.-Head-Change                         Max.-Flux-Residual
  Residual-Control   Outer-Iter.   Inner-Iter.     Column Row Layer    Maximum-Head-Change  Column Row Layer    Maximum-Flux-Residual          L2-NORM 
          0                 1           2             4    7     1      -0.1545418426E+00       4    7    1        -0.8094799029E+01      0.1809419148E+02
          0                 2           2             4    7     1       0.1503239210E-01       4    7    1         0.8094588581E+00      0.1809392127E+01
          0                 3           2             4    7     1      -0.1023653254E-02       4    7    1        -0.5666234366E-01      0.1266577581E+00
          0                 4           1             4    7     1       0.4073210679E-04       4    7    1         0.2317492159E-02      0.5180308263E-02

    ------------------------------------------------
       NWT REQUIRED            4 OUTER ITERATIONS 
       AND A TOTAL OF          7 INNER ITERATIONS.
    ------------------------------------------------

 NO OUTPUT CONTROL FOR STRESS PERIOD   44   TIME STEP    7
 
 SOLVING FOR HEAD 
                                                   Max.-Head-Change                         Max.-Flux-Residual
  Residual-Control   Outer-Iter.   Inner-Iter.     Column Row Layer    Maximum-Head-Change  Column Row Layer    Maximum-Flux-Residual          L2-NORM 
          0                 1           2             4    7     1      -0.1532668088E+00       4    7    1        -0.8029755533E+01      0.1785668516E+02
          0                 2           2             4    7     1       0.1490835975E-01       4    7    1         0.8029540726E+00      0.1785641660E+01
          0                 3           2             4    7     1      -0.1015207172E-02       4    7    1        -0.5620701259E-01      0.1249952225E+00
          0                 4           1             4    7     1       0.4039602883E-04       4    7    1         0.2298869071E-02      0.5112310656E-02

    ------------------------------------------------
       NWT REQUIRED            4 OUTER ITERATIONS 
       AND A TOTAL OF          7 INNER ITERATIONS.
    ------------------------------------------------

 NO OUTPUT CONTROL FOR STRESS PERIOD   44   TIME STEP    8
 
 SOLVING FOR HEAD 
                                                   Max.-Head-Change                         Max.-Flux-Residual
  Residual-Control   Outer-Iter.   Inner-Iter.     Column Row Layer    Maximum-Head-Change  Column Row Layer    Maximum-Flux-Residual          L2-NORM 
          0                 1           2             4    7     1      -0.1519716869E+00       4    7    1        -0.7963501471E+01      0.1762851739E+02
          0                 2           2             4    7     1       0.1478237453E-01       4    7    1         0.7963283097E+00      0.1762825097E+01
          0                 3           2             4    7     1      -0.1006628096E-02       4    7    1        -0.5574321237E-01      0.1233980606E+00
          0                 4           1             4    7     1       0.4005465949E-04       4    7    1         0.2279899612E-02      0.5046986593E-02

    ------------------------------------------------
       NWT REQUIRED            4 OUTER ITERATIONS 
       AND A TOTAL OF          7 INNER ITERATIONS.
    ------------------------------------------------

 NO OUTPUT CONTROL FOR STRESS PERIOD   44   TIME STEP    9
 
 SOLVING FOR HEAD 
                                                   Max.-Head-Change                         Max.-Flux-Residual
  Residual-Control   Outer-Iter.   Inner-Iter.     Column Row Layer    Maximum-Head-Change  Column Row Layer    Maximum-Flux-Residual          L2-NORM 
          0                 1           2             4    7     1      -0.1506593869E+00       4    7    1        -0.7896198646E+01      0.1740909182E+02
          0                 2           2             4    7     1       0.1465471944E-01       4    7    1         0.7895977435E+00      0.1740882797E+01
          0                 3           2             4    7     1      -0.9979352982E-03       4    7    1        -0.5527207522E-01      0.1218620966E+00
          0                 4           1             4    7     1       0.3970876460E-04       4    7    1         0.2260630068E-02      0.4984165713E-02

    ------------------------------------------------
       NWT REQUIRED            4 OUTER ITERATIONS 
       AND A TOTAL OF          7 INNER ITERATIONS.
    ------------------------------------------------

 NO OUTPUT CONTROL FOR STRESS PERIOD   44   TIME STEP   10
 
 SOLVING FOR HEAD 
                                                   Max.-Head-Change                         Max.-Flux-Residual
  Residual-Control   Outer-Iter.   Inner-Iter.     Column Row Layer    Maximum-Head-Change  Column Row Layer    Maximum-Flux-Residual          L2-NORM 
          0                 1           2             4    7     1      -0.1493328740E+00       4    7    1        -0.7828011560E+01      0.1719787265E+02
          0                 2           2             4    7     1       0.1452568279E-01       4    7    1         0.7827788176E+00      0.1719761174E+01
          0                 3           2             4    7     1      -0.9891484115E-03       4    7    1        -0.5479475225E-01      0.1203835797E+00
          0                 4           1             4    7     1       0.3935912588E-04       4    7    1         0.2241107507E-02      0.4923709614E-02

    ------------------------------------------------
       NWT REQUIRED            4 OUTER ITERATIONS 
       AND A TOTAL OF          7 INNER ITERATIONS.
    ------------------------------------------------

 NO OUTPUT CONTROL FOR STRESS PERIOD   44   TIME STEP   11
 
 SOLVING FOR HEAD 
                                                   Max.-Head-Change                         Max.-Flux-Residual
  Residual-Control   Outer-Iter.   Inner-Iter.     Column Row Layer    Maximum-Head-Change  Column Row Layer    Maximum-Flux-Residual          L2-NORM 
          0                 1           2             4    7     1      -0.1479948052E+00       4    7    1        -0.7759088579E+01      0.1699435652E+02
          0                 2           2             4    7     1       0.1439552297E-01       4    7    1         0.7758863627E+00      0.1699409905E+01
          0                 3           2             4    7     1      -0.9802850315E-03       4    7    1        -0.5431228168E-01      0.1189589871E+00
          0                 4           1             4    7     1       0.3900644364E-04       4    7    1         0.2221374429E-02      0.4865428278E-02

    ------------------------------------------------
       NWT REQUIRED            4 OUTER ITERATIONS 
       AND A TOTAL OF          7 INNER ITERATIONS.
    ------------------------------------------------

 NO OUTPUT CONTROL FOR STRESS PERIOD   44   TIME STEP   12
 
 SOLVING FOR HEAD 
                                                   Max.-Head-Change                         Max.-Flux-Residual
  Residual-Control   Outer-Iter.   Inner-Iter.     Column Row Layer    Maximum-Head-Change  Column Row Layer    Maximum-Flux-Residual          L2-NORM 
          0                 1           2             4    7     1      -0.1466473521E+00       4    7    1        -0.7689551031E+01      0.1679808018E+02
          0                 2           2             4    7     1       0.1426445113E-01       4    7    1         0.7689325066E+00      0.1679782597E+01
          0                 3           2             4    7     1      -0.9713595391E-03       4    7    1        -0.5382551251E-01      0.1175850712E+00
          0                 4           1             4    7     1       0.3865129008E-04       4    7    1         0.2201465546E-02      0.4809235271E-02

    ------------------------------------------------
       NWT REQUIRED            4 OUTER ITERATIONS 
       AND A TOTAL OF          7 INNER ITERATIONS.
    ------------------------------------------------

 NO OUTPUT CONTROL FOR STRESS PERIOD   44   TIME STEP   13
 
 SOLVING FOR HEAD 
                                                   Max.-Head-Change                         Max.-Flux-Residual
  Residual-Control   Outer-Iter.   Inner-Iter.     Column Row Layer    Maximum-Head-Change  Column Row Layer    Maximum-Flux-Residual          L2-NORM 
          0                 1           2             4    7     1      -0.1452929740E+00       4    7    1        -0.7619536185E+01      0.1660862127E+02
          0                 2           2             4    7     1       0.1413270463E-01       4    7    1         0.7619309709E+00      0.1660785521E+01
          0                 3           2             4    7     1      -0.9623880971E-03       4    7    1        -0.5333540528E-01      0.1162552718E+00
          0                 4           1             4    7     1       0.3829430794E-04       4    7    1         0.2181420128E-02      0.4754846660E-02

    ------------------------------------------------
       NWT REQUIRED            4 OUTER ITERATIONS 
       AND A TOTAL OF          7 INNER ITERATIONS.
    ------------------------------------------------

 NO OUTPUT CONTROL FOR STRESS PERIOD   44   TIME STEP   14
 
 SOLVING FOR HEAD 
                                                   Max.-Head-Change                         Max.-Flux-Residual
  Residual-Control   Outer-Iter.   Inner-Iter.     Column Row Layer    Maximum-Head-Change  Column Row Layer    Maximum-Flux-Residual          L2-NORM 
          0                 1           2             4    7     1      -0.1439337601E+00       4    7    1        -0.7549160571E+01      0.1642565228E+02
          0                 2           2             4    7     1       0.1400049198E-01       4    7    1         0.7548934041E+00      0.1642540590E+01
          0                 3           2             4    7     1      -0.9533849053E-03       4    7    1        -0.5284277544E-01      0.1149781220E+00
          0                 4           1             4    7     1       0.3793606216E-04       4    7    1         0.2161271522E-02      0.4702610638E-02

    ------------------------------------------------
       NWT REQUIRED            4 OUTER ITERATIONS 
       AND A TOTAL OF          7 INNER ITERATIONS.
    ------------------------------------------------

 NO OUTPUT CONTROL FOR STRESS PERIOD   44   TIME STEP   15
 
 SOLVING FOR HEAD 
                                                   Max.-Head-Change                         Max.-Flux-Residual
  Residual-Control   Outer-Iter.   Inner-Iter.     Column Row Layer    Maximum-Head-Change  Column Row Layer    Maximum-Flux-Residual          L2-NORM 
          0                 1           2             4    7     1      -0.1425716820E+00       4    7    1        -0.7478535088E+01      0.1624877926E+02
          0                 2           2             4    7     1       0.1386799954E-01       4    7    1         0.7478308915E+00      0.1624853687E+01
          0                 3           2             4    7     1      -0.9443626555E-03       4    7    1        -0.5234839901E-01      0.1137400350E+00
          0                 4           1             4    7     1       0.3757705839E-04       4    7    1         0.2141051497E-02      0.4651972638E-02

    ------------------------------------------------
       NWT REQUIRED            4 OUTER ITERATIONS 
       AND A TOTAL OF          7 INNER ITERATIONS.
    ------------------------------------------------

 NO OUTPUT CONTROL FOR STRESS PERIOD   44   TIME STEP   16
 
 SOLVING FOR HEAD 
                                                   Max.-Head-Change                         Max.-Flux-Residual
  Residual-Control   Outer-Iter.   Inner-Iter.     Column Row Layer    Maximum-Head-Change  Column Row Layer    Maximum-Flux-Residual          L2-NORM 
          0                 1           2             4    7     1      -0.1412085472E+00       4    7    1        -0.7407761299E+01      0.1607765786E+02
          0                 2           2             4    7     1       0.1373540487E-01       4    7    1         0.7407535854E+00      0.1607741954E+01
          0                 3           2             4    7     1      -0.9353334386E-03       4    7    1        -0.5185298668E-01      0.1125422078E+00
          0                 4           1             4    7     1       0.3721777761E-04       4    7    1         0.2120789117E-02      0.4602981852E-02

    ------------------------------------------------
       NWT REQUIRED            4 OUTER ITERATIONS 
       AND A TOTAL OF          7 INNER ITERATIONS.
    ------------------------------------------------

 NO OUTPUT CONTROL FOR STRESS PERIOD   44   TIME STEP   17
 
 SOLVING FOR HEAD 
                                                   Max.-Head-Change                         Max.-Flux-Residual
  Residual-Control   Outer-Iter.   Inner-Iter.     Column Row Layer    Maximum-Head-Change  Column Row Layer    Maximum-Flux-Residual          L2-NORM 
          0                 1           2             4    7     1      -0.1398458720E+00       4    7    1        -0.7336924622E+01      0.1591198024E+02
          0                 2           2             4    7     1       0.1360285538E-01       4    7    1         0.7336700240E+00      0.1591174610E+01
          0                 3           2             4    7     1      -0.9263072939E-03       4    7    1        -0.5135713617E-01      0.1113824912E+00
          0                 4           1             4    7     1       0.3685861887E-04       4    7    1         0.2100508809E-02      0.4555550366E-02

    ------------------------------------------------
       NWT REQUIRED            4 OUTER ITERATIONS 
       AND A TOTAL OF          7 INNER ITERATIONS.
    ------------------------------------------------

 NO OUTPUT CONTROL FOR STRESS PERIOD   44   TIME STEP   18
 
 SOLVING FOR HEAD 
                                                   Max.-Head-Change                         Max.-Flux-Residual
  Residual-Control   Outer-Iter.   Inner-Iter.     Column Row Layer    Maximum-Head-Change  Column Row Layer    Maximum-Flux-Residual          L2-NORM 
          0                 1           2             4    7     1      -0.1384853661E+00       4    7    1        -0.7266121041E+01      0.1575147380E+02
          0                 2           2             4    7     1       0.1347051735E-01       4    7    1         0.7265898023E+00      0.1575124387E+01
          0                 3           2             4    7     1      -0.9172955442E-03       4    7    1        -0.5086151915E-01      0.1102589709E+00
          0                 4           1             4    7     1       0.3650003335E-04       4    7    1         0.2080238051E-02      0.4509597809E-02

    ------------------------------------------------
       NWT REQUIRED            4 OUTER ITERATIONS 
       AND A TOTAL OF          7 INNER ITERATIONS.
    ------------------------------------------------

 NO OUTPUT CONTROL FOR STRESS PERIOD   44   TIME STEP   19
 
 SOLVING FOR HEAD 
                                                   Max.-Head-Change                         Max.-Flux-Residual
  Residual-Control   Outer-Iter.   Inner-Iter.     Column Row Layer    Maximum-Head-Change  Column Row Layer    Maximum-Flux-Residual          L2-NORM 
          0                 1           2             4    7     1      -0.1371282658E+00       4    7    1        -0.7195420886E+01      0.1559586572E+02
          0                 2           2             4    7     1       0.1333851099E-01       4    7    1         0.7195199500E+00      0.1559564002E+01
          0                 3           2             4    7     1      -0.9083063755E-03       4    7    1        -0.5036662771E-01      0.1091697392E+00
          0                 4           1             4    7     1       0.3614234629E-04       4    7    1         0.2059996984E-02      0.4465048002E-02

    ------------------------------------------------
       NWT REQUIRED            4 OUTER ITERATIONS 
       AND A TOTAL OF          7 INNER ITERATIONS.
    ------------------------------------------------

 NO OUTPUT CONTROL FOR STRESS PERIOD   44   TIME STEP   20
 
 SOLVING FOR HEAD 
                                                   Max.-Head-Change                         Max.-Flux-Residual
  Residual-Control   Outer-Iter.   Inner-Iter.     Column Row Layer    Maximum-Head-Change  Column Row Layer    Maximum-Flux-Residual          L2-NORM 
          0                 1           2             4    7     1      -0.1357761646E+00       4    7    1        -0.7124913832E+01      0.1544491660E+02
          0                 2           2             4    7     1       0.1320699124E-01       4    7    1         0.7124694314E+00      0.1544469515E+01
          0                 3           2             4    7     1      -0.8993503411E-03       4    7    1        -0.4987308944E-01      0.1081131209E+00
          0                 4           1             4    7     1       0.3578597721E-04       4    7    1         0.2039811237E-02      0.4421831672E-02

    ------------------------------------------------
       NWT REQUIRED            4 OUTER ITERATIONS 
       AND A TOTAL OF          7 INNER ITERATIONS.
    ------------------------------------------------

 NO OUTPUT CONTROL FOR STRESS PERIOD   44   TIME STEP   21
 
 SOLVING FOR HEAD 
                                                   Max.-Head-Change                         Max.-Flux-Residual
  Residual-Control   Outer-Iter.   Inner-Iter.     Column Row Layer    Maximum-Head-Change  Column Row Layer    Maximum-Flux-Residual          L2-NORM 
          0                 1           2             4    7     1      -0.1344299336E+00       4    7    1        -0.7054649683E+01      0.1529840784E+02
          0                 2           2             4    7     1       0.1307604289E-01       4    7    1         0.7054432246E+00      0.1529856161E+01
          0                 3           2             4    7     1      -0.8904332127E-03       4    7    1        -0.4938125276E-01      0.1070901807E+00
          0                 4           1             4    7     1       0.3543115647E-04       4    7    1         0.2019695104E-02      0.4379993664E-02

    ------------------------------------------------
       NWT REQUIRED            4 OUTER ITERATIONS 
       AND A TOTAL OF          7 INNER ITERATIONS.
    ------------------------------------------------

 NO OUTPUT CONTROL FOR STRESS PERIOD   44   TIME STEP   22
 
 SOLVING FOR HEAD 
                                                   Max.-Head-Change                         Max.-Flux-Residual
  Residual-Control   Outer-Iter.   Inner-Iter.     Column Row Layer    Maximum-Head-Change  Column Row Layer    Maximum-Flux-Residual          L2-NORM 
          0                 1           2             4    7     1      -0.1330909390E+00       4    7    1        -0.6984705457E+01      0.1515609095E+02
          0                 2           2             4    7     1       0.1294579858E-01       4    7    1         0.6984490285E+00      0.1515593053E+01
          0                 3           2             4    7     1      -0.8815640247E-03       4    7    1        -0.4889165670E-01      0.1060913896E+00
          0                 4           1             4    7     1       0.3507824318E-04       4    7    1         0.1999670597E-02      0.4339150954E-02

    ------------------------------------------------
       NWT REQUIRED            4 OUTER ITERATIONS 
       AND A TOTAL OF          7 INNER ITERATIONS.
    ------------------------------------------------

 NO OUTPUT CONTROL FOR STRESS PERIOD   44   TIME STEP   23
 
 SOLVING FOR HEAD 
                                                   Max.-Head-Change                         Max.-Flux-Residual
  Residual-Control   Outer-Iter.   Inner-Iter.     Column Row Layer    Maximum-Head-Change  Column Row Layer    Maximum-Flux-Residual          L2-NORM 
          0                 1           2             4    7     1      -0.1317598790E+00       4    7    1        -0.6915122064E+01      0.1501778978E+02
          0                 2           2             4    7     1       0.1281632651E-01       4    7    1         0.6914909320E+00      0.1501816184E+01
          0                 3           2             4    7     1      -0.8727474209E-03       4    7    1        -0.4840458743E-01      0.1051273728E+00
          0                 4           1             4    7     1       0.3472742255E-04       4    7    1         0.1979749438E-02      0.4299715251E-02

    ------------------------------------------------
       NWT REQUIRED            4 OUTER ITERATIONS 
       AND A TOTAL OF          7 INNER ITERATIONS.
    ------------------------------------------------

 NO OUTPUT CONTROL FOR STRESS PERIOD   44   TIME STEP   24
 
 SOLVING FOR HEAD 
                                                   Max.-Head-Change                         Max.-Flux-Residual
  Residual-Control   Outer-Iter.   Inner-Iter.     Column Row Layer    Maximum-Head-Change  Column Row Layer    Maximum-Flux-Residual          L2-NORM 
          0                 1           2             4    7     1      -0.1304377784E+00       4    7    1        -0.6845957421E+01      0.1488328641E+02
          0                 2           2             4    7     1       0.1268772591E-01       4    7    1         0.6845747249E+00      0.1488308347E+01
          0                 3           2             4    7     1      -0.8639901586E-03       4    7    1        -0.4792045027E-01      0.1041818193E+00
          0                 4           1             4    7     1       0.3437896297E-04       4    7    1         0.1959948215E-02      0.4261041850E-02

    ------------------------------------------------
       NWT REQUIRED            4 OUTER ITERATIONS 
       AND A TOTAL OF          7 INNER ITERATIONS.
    ------------------------------------------------

 NO OUTPUT CONTROL FOR STRESS PERIOD   44   TIME STEP   25
 
 SOLVING FOR HEAD 
                                                   Max.-Head-Change                         Max.-Flux-Residual
  Residual-Control   Outer-Iter.   Inner-Iter.     Column Row Layer    Maximum-Head-Change  Column Row Layer    Maximum-Flux-Residual          L2-NORM 
          0                 1           2             4    7     1      -0.1291255836E+00       4    7    1        -0.6777265629E+01      0.1475245383E+02
          0                 2           2             4    7     1       0.1256008918E-01       4    7    1         0.6777058150E+00      0.1475225504E+01
          0                 3           2             4    7     1      -0.8552985311E-03       4    7    1        -0.4743962383E-01      0.1032660163E+00
          0                 4           1             4    7     1       0.3403311563E-04       4    7    1         0.1940282417E-02      0.4223585142E-02

    ------------------------------------------------
       NWT REQUIRED            4 OUTER ITERATIONS 
       AND A TOTAL OF          7 INNER ITERATIONS.
    ------------------------------------------------

 NO OUTPUT CONTROL FOR STRESS PERIOD   44   TIME STEP   26
 
 SOLVING FOR HEAD 
                                                   Max.-Head-Change                         Max.-Flux-Residual
  Residual-Control   Outer-Iter.   Inner-Iter.     Column Row Layer    Maximum-Head-Change  Column Row Layer    Maximum-Flux-Residual          L2-NORM 
          0                 1           2             4    7     1      -0.1278238431E+00       4    7    1        -0.6709078411E+01      0.1462514226E+02
          0                 2           2             4    7     1       0.1243346951E-01       4    7    1         0.6708873730E+00      0.1462494757E+01
          0                 3           2             4    7     1      -0.8466761607E-03       4    7    1        -0.4696233006E-01      0.1023748595E+00
          0                 4           1             4    7     1       0.3369002329E-04       4    7    1         0.1920761076E-02      0.4187135927E-02

    ------------------------------------------------
       NWT REQUIRED            4 OUTER ITERATIONS 
       AND A TOTAL OF          7 INNER ITERATIONS.
    ------------------------------------------------

 NO OUTPUT CONTROL FOR STRESS PERIOD   44   TIME STEP   27
 
 SOLVING FOR HEAD 
                                                   Max.-Head-Change                         Max.-Flux-Residual
  Residual-Control   Outer-Iter.   Inner-Iter.     Column Row Layer    Maximum-Head-Change  Column Row Layer    Maximum-Flux-Residual          L2-NORM 
          0                 1           2             4    7     1      -0.1265333498E+00       4    7    1        -0.6641441540E+01      0.1450119277E+02
          0                 2           2             4    7     1       0.1230794402E-01       4    7    1         0.6641239745E+00      0.1450100171E+01
          0                 3           2             4    7     1      -0.8381282974E-03       4    7    1        -0.4648888921E-01      0.1015072327E+00
          0                 4           1             4    7     1       0.3334989583E-04       4    7    1         0.1901397325E-02      0.4151650632E-02

    ------------------------------------------------
       NWT REQUIRED            4 OUTER ITERATIONS 
       AND A TOTAL OF          7 INNER ITERATIONS.
    ------------------------------------------------

 NO OUTPUT CONTROL FOR STRESS PERIOD   44   TIME STEP   28
 
 SOLVING FOR HEAD 
                                                   Max.-Head-Change                         Max.-Flux-Residual
  Residual-Control   Outer-Iter.   Inner-Iter.     Column Row Layer    Maximum-Head-Change  Column Row Layer    Maximum-Flux-Residual          L2-NORM 
          0                 1           2             4    7     1      -0.1252546687E+00       4    7    1        -0.6574387938E+01      0.1438046486E+02
          0                 2           2             4    7     1       0.1218357720E-01       4    7    1         0.6574189103E+00      0.1438025553E+01
          0                 3           2             4    7     1      -0.8296686342E-03       4    7    1        -0.4601953172E-01      0.1006647956E+00
          0                 4           1             4    7     1       0.3301327804E-04       4    7    1         0.1882200583E-02      0.4117195084E-02

    ------------------------------------------------
       NWT REQUIRED            4 OUTER ITERATIONS 
       AND A TOTAL OF          7 INNER ITERATIONS.
    ------------------------------------------------

 NO OUTPUT CONTROL FOR STRESS PERIOD   44   TIME STEP   29
 
 SOLVING FOR HEAD 
                                                   Max.-Head-Change                         Max.-Flux-Residual
  Residual-Control   Outer-Iter.   Inner-Iter.     Column Row Layer    Maximum-Head-Change  Column Row Layer    Maximum-Flux-Residual          L2-NORM 
          0                 1           2             4    7     1      -0.1239883259E+00       4    7    1        -0.6507947851E+01      0.1426284104E+02
          0                 2           2             4    7     1       0.1206022050E-01       4    7    1         0.6507752036E+00      0.1426217741E+01
          0                 3           2             4    7     1      -0.8212591577E-03       4    7    1        -0.4555446935E-01      0.9983545443E-01
          0                 4           1             4    7     1       0.3267865771E-04       4    7    1         0.1863179534E-02      0.4083276324E-02

    ------------------------------------------------
       NWT REQUIRED            4 OUTER ITERATIONS 
       AND A TOTAL OF          7 INNER ITERATIONS.
    ------------------------------------------------

 NO OUTPUT CONTROL FOR STRESS PERIOD   44   TIME STEP   30



 STREAM LISTING     PERIOD     44   STEP       30

 LAYER ROW COL. STREAM  RCH.  FLOW INTO     FLOW TO   FLOW OUT OF   OVRLND.     DIRECT     STREAM       STREAM     STREAM     STREAM   STREAMBED  STREAMBED
                SEG.NO.  NO.  STRM. RCH.    AQUIFER    STRM. RCH.    RUNOFF     PRECIP       ET          HEAD       DEPTH      WIDTH   CONDCTNC.   GRADIENT

   1    1    1     1     1    1.9000E+01  2.1427E-01   1.8786E+01  0.000E+00  0.000E+00  0.000E+00  1.09413E+03  1.082E+00  1.166E+01  5.249E-02  1.361E+00
   1    2    2     1     2    1.8786E+01  3.3054E-01   1.8455E+01  0.000E+00  0.000E+00  0.000E+00  1.08914E+03  1.077E+00  1.158E+01  8.107E-02  1.359E+00
   1    3    3     1     3    1.8455E+01  2.8064E-01   1.8175E+01  0.000E+00  0.000E+00  0.000E+00  1.08349E+03  1.072E+00  1.149E+01  6.892E-02  1.357E+00
   1    3    4     1     4    1.8175E+01  2.5740E-01   1.7917E+01  0.000E+00  0.000E+00  0.000E+00  1.07848E+03  1.068E+00  1.140E+01  6.328E-02  1.356E+00
   1    4    5     2     1    1.5917E+01  3.0542E-01   1.5612E+01  0.000E+00  0.000E+00  0.000E+00  1.07285E+03  9.157E-01  1.200E+01  7.800E-02  1.305E+00
   1    5    6     2     2    1.5612E+01  2.3438E-01   1.5377E+01  0.000E+00  0.000E+00  0.000E+00  1.06742E+03  9.063E-01  1.200E+01  6.000E-02  1.302E+00
   1    6    6     2     3    1.5377E+01  2.3388E-01   1.5143E+01  0.000E+00  0.000E+00  0.000E+00  1.06269E+03  8.980E-01  1.200E+01  6.000E-02  1.299E+00
   1    7    6     2     4    1.5143E+01  2.3338E-01   1.4910E+01  0.000E+00  0.000E+00  0.000E+00  1.05797E+03  8.897E-01  1.200E+01  6.000E-02  1.297E+00
   1    8    6     2     5    1.4910E+01  2.3289E-01   1.4677E+01  0.000E+00  0.000E+00  0.000E+00  1.05324E+03  8.814E-01  1.200E+01  6.000E-02  1.294E+00
   1    3    5     3     1    2.0000E+00  2.8252E-01   1.7175E+00  0.000E+00  0.000E+00  0.000E+00  1.07555E+03  1.909E+00  9.636E+00  7.227E-02  1.955E+00
   1    3    6     3     2    1.7175E+00  2.4905E-01   1.4684E+00  0.000E+00  0.000E+00  0.000E+00  1.07264E+03  1.727E+00  8.909E+00  6.682E-02  1.864E+00
   1    3    7     3     3    1.4684E+00  1.9718E-01   1.2712E+00  0.000E+00  0.000E+00  0.000E+00  1.06987E+03  1.555E+00  8.218E+00  5.547E-02  1.777E+00
   1    4    8     3     4    1.2712E+00  2.2567E-01   1.0456E+00  0.000E+00  0.000E+00  0.000E+00  1.06682E+03  1.364E+00  7.455E+00  6.709E-02  1.682E+00
   1    5    8     3     5    1.0456E+00  1.5790E-01   8.8768E-01  0.000E+00  0.000E+00  0.000E+00  1.06362E+03  1.164E+00  6.655E+00  4.991E-02  1.582E+00
   1    6    8     3     6    8.8768E-01  5.5980E-02   8.3170E-01  0.000E+00  0.000E+00  0.000E+00  1.06158E+03  1.036E+00  6.145E+00  1.844E-02  1.518E+00
   1    5   10     4     1    1.0000E+01  9.0919E-02   9.9091E+00  0.000E+00  0.000E+00  0.000E+00  1.07836E+03  6.368E-01  1.000E+01  2.500E-02  1.212E+00
   1    5    9     4     2    9.9091E+00  1.8158E-01   9.7275E+00  0.000E+00  0.000E+00  0.000E+00  1.07154E+03  6.315E-01  1.000E+01  5.000E-02  1.211E+00
   1    6    8     4     3    9.7275E+00  1.2689E-01   9.6006E+00  0.000E+00  0.000E+00  0.000E+00  1.06381E+03  6.256E-01  1.000E+01  3.500E-02  1.209E+00
   1    6    8     5     1    1.0432E+01  2.2686E-01   1.0205E+01  0.000E+00  0.000E+00  0.000E+00  1.05868E+03  6.790E-01  1.542E+01  6.166E-02  1.226E+00
   1    7    7     5     2    1.0205E+01  2.7894E-01   9.9265E+00  0.000E+00  0.000E+00  0.000E+00  1.05417E+03  6.732E-01  1.519E+01  7.594E-02  1.224E+00
   1    8    7     5     3    9.9265E+00  1.9221E-01   9.7343E+00  0.000E+00  0.000E+00  0.000E+00  1.04992E+03  6.676E-01  1.497E+01  5.241E-02  1.223E+00
   1    8    6     5     4    9.7343E+00  1.3577E-01   9.5985E+00  0.000E+00  0.000E+00  0.000E+00  1.04691E+03  6.637E-01  1.482E+01  3.706E-02  1.221E+00
   1    9    6     6     1    2.4276E+01  2.5176E-01   2.4024E+01  0.000E+00  0.000E+00  0.000E+00  1.04392E+03  1.196E+00  1.200E+01  6.000E-02  1.399E+00
   1   10    7     6     2    2.4024E+01  2.5131E-01   2.3773E+01  0.000E+00  0.000E+00  0.000E+00  1.03937E+03  1.188E+00  1.200E+01  6.000E-02  1.396E+00
   1   11    7     6     3    2.3773E+01  2.5086E-01   2.3522E+01  0.000E+00  0.000E+00  0.000E+00  1.03482E+03  1.181E+00  1.200E+01  6.000E-02  1.394E+00
   1   12    7     6     4    2.3522E+01  2.5041E-01   2.3271E+01  0.000E+00  0.000E+00  0.000E+00  1.03026E+03  1.173E+00  1.200E+01  6.000E-02  1.391E+00
   1   13    7     6     5    2.3271E+01  1.1256E-02   2.3260E+01  0.000E+00  0.000E+00  0.000E+00  1.02708E+03  1.170E+00  1.200E+01  2.400E-02  1.563E-01
   1   14    9     7     1    1.5000E+02  1.3729E+00   1.4863E+02  0.000E+00  0.000E+00  0.000E+00  1.03987E+03  2.288E+00  5.529E+01  5.593E-01  8.183E-01
   1   13    8     7     2    1.4863E+02  1.9762E+00   1.4665E+02  0.000E+00  0.000E+00  0.000E+00  1.03478E+03  2.279E+00  5.525E+01  6.147E-01  1.072E+00
   1   13    7     7     3    1.4665E+02  1.7190E+00   1.4493E+02  0.000E+00  0.000E+00  0.000E+00  1.02969E+03  2.269E+00  5.521E+01  5.584E-01  1.026E+00
   1   13    6     8     1    1.6819E+02  1.1502E+00   1.6704E+02  0.000E+00  0.000E+00  0.000E+00  1.02481E+03  2.937E+00  4.258E+01  4.339E-01  8.836E-01
   1   13    5     8     2    1.6704E+02  3.8357E-01   1.6666E+02  0.000E+00  0.000E+00  0.000E+00  1.01856E+03  2.932E+00  4.251E+01  4.332E-01  2.952E-01
   1   13    4     8     3    1.6666E+02 -1.7496E+00   1.6841E+02  0.000E+00  0.000E+00  0.000E+00  1.01231E+03  2.936E+00  4.257E+01  4.338E+00 -1.344E-01
   1   13    3     8     4    1.6841E+02 -3.3080E+00   1.7172E+02  0.000E+00  0.000E+00  0.000E+00  1.00608E+03  2.953E+00  4.281E+01  4.363E+00 -2.527E-01
   1   13    2     8     5    1.7172E+02 -2.4900E+00   1.7421E+02  0.000E+00  0.000E+00  0.000E+00  9.99846E+02  2.971E+00  4.309E+01  4.391E+00 -1.890E-01
   1   13    1     8     6    1.7421E+02 -1.9593E+00   1.7617E+02  0.000E+00  0.000E+00  0.000E+00  9.94861E+02  2.986E+00  4.329E+01  2.647E+00 -2.467E-01





UNSATURATED ZONE PACKAGE VOLUMETRIC BUDGET FOR  TIME STEP    30 STRESS PERIOD   44
  ------------------------------------------------------------------------------



     CUMULATIVE VOLUMES      L**3       RATES FOR THIS TIME STEP      L**3/T
     ------------------                 ------------------------

           IN:                                      IN:
           ---                                      ---
        INFILTRATION =  1933927582.0864          INFILTRATION =          64.0354

          OUT:                                     OUT:
          ----                                     ----
              UZF ET =  1807955515.2816                UZF ET =          64.1075
        UZF RECHARGE =     1369204.6315          UZF RECHARGE =           0.0029

            IN - OUT =   124602862.1733              IN - OUT =      -7.5078E-02

          STORAGE:                                 STORAGE:
          --------                                 --------
      STORAGE CHANGE =   124603784.8976        STORAGE CHANGE =      -7.5078E-02

 PERCENT DISCREPANCY IS DIFFERENCE BETWEEN IN-OUT MINUS CHANGE IN STORAGE
 DIVIDED BY THE AVERAGE OF IN AND OUT TIMES 100

 PERCENT DISCREPANCY =          -0.00     PERCENT DISCREPANCY =           0.00






1
  VOLUMETRIC BUDGET FOR AGRICULTURAL FIELDS AT TIME STEP   30, STRESS PERIOD  44
  ------------------------------------------------------------------------------

     CUMULATIVE VOLUMES      L**3       RATES FOR THIS TIME STEP      L**3/T
     ------------------                 ------------------------

           IN:                                      IN:
           ---                                      ---
               AG WELLS  =  1435409792.0000                 AG WELLS  =          59.6279
      DIVERSION SEGMENTS =           0.0000        DIVERSION SEGMENTS =           0.0000
           GW IRRIGATION =           0.0000             GW IRRIGATION =           0.0000
           SW IRRIGATION =           0.0000             SW IRRIGATION =           0.0000
        SYSTEM LOSSES GW =           0.0000          SYSTEM LOSSES GW =           0.0000
        SYSTEM LOSSES SW =           0.0000          SYSTEM LOSSES SW =           0.0000

                TOTAL IN =  1435409792.0000                  TOTAL IN =          59.6279

          OUT:                                     OUT:
          ----                                     ----
               AG WELLS  =           0.0000                 AG WELLS  =           0.0000
      DIVERSION SEGMENTS =           0.0000        DIVERSION SEGMENTS =           0.0000
           GW IRRIGATION =  1435409792.0000             GW IRRIGATION =          59.6279
           SW IRRIGATION =           0.0000             SW IRRIGATION =           0.0000
        SYSTEM LOSSES GW =           0.0000          SYSTEM LOSSES GW =           0.0000
        SYSTEM LOSSES SW =           0.0000          SYSTEM LOSSES SW =           0.0000

               TOTAL OUT =  1435409792.0000                 TOTAL OUT =          59.6279

                IN - OUT =           0.0000                  IN - OUT =           0.0000

     PERCENT DISCREPANCY =           0.00         PERCENT DISCREPANCY =           0.00



1
  VOLUMETRIC BUDGET FOR ENTIRE MODEL AT END OF TIME STEP   30, STRESS PERIOD  44
  ------------------------------------------------------------------------------

     CUMULATIVE VOLUMES      L**3       RATES FOR THIS TIME STEP      L**3/T
     ------------------                 ------------------------

           IN:                                      IN:
           ---                                      ---
             STORAGE     =  1907672192.0000               STORAGE     =          56.8088
       CONSTANT HEAD     =           0.0000         CONSTANT HEAD     =           0.0000
     HEAD DEP BOUNDS     =    32385800.0000       HEAD DEP BOUNDS     =           0.2883
      STREAM LEAKAGE     =  1385632384.0000        STREAM LEAKAGE     =          12.3418
        UZF RECHARGE     =     1369203.8750          UZF RECHARGE     =       2.9361E-03
               GW ET     =           0.0000                 GW ET     =           0.0000
     SURFACE LEAKAGE     =           0.0000       SURFACE LEAKAGE     =           0.0000
           AG WELLS      =           0.0000             AG WELLS      =           0.0000

                TOTAL IN =  3327059456.0000                  TOTAL IN =          69.4418

          OUT:                                     OUT:
          ----                                     ----
             STORAGE     =   691217472.0000               STORAGE     =       1.8477E-02
       CONSTANT HEAD     =           0.0000         CONSTANT HEAD     =           0.0000
     HEAD DEP BOUNDS     =    33032752.0000       HEAD DEP BOUNDS     =           0.2888
      STREAM LEAKAGE     =  1150057216.0000        STREAM LEAKAGE     =           9.5069
        UZF RECHARGE     =           0.0000          UZF RECHARGE     =           0.0000
               GW ET     =    17343536.0000                 GW ET     =           0.0000
     SURFACE LEAKAGE     =           0.0000       SURFACE LEAKAGE     =           0.0000
           AG WELLS      =  1435409792.0000             AG WELLS      =          59.6279

               TOTAL OUT =  3327060736.0000                 TOTAL OUT =          69.4420

                IN - OUT =       -1280.0000                  IN - OUT =      -2.0599E-04

     PERCENT DISCREPANCY =          -0.00         PERCENT DISCREPANCY =          -0.00






         TIME SUMMARY AT END OF TIME STEP   30 IN STRESS PERIOD   44
                    SECONDS     MINUTES      HOURS       DAYS        YEARS
                    -----------------------------------------------------------
   TIME STEP LENGTH  87667.      1461.1      24.352      1.0147     2.77799E-03
 STRESS PERIOD TIME 2.63000E+06  43833.      730.56      30.440     8.33397E-02
         TOTAL TIME 1.13175E+08 1.88626E+06  31438.      1309.9      3.5863    
1
1
                            STRESS PERIOD NO.   45, LENGTH =   2630000.    
                            -----------------------------------------------

                              NUMBER OF TIME STEPS =    30

                               MULTIPLIER FOR DELT =     1.000

                            INITIAL TIME STEP SIZE =   87666.66    

 REUSING NON-PARAMETER GHB CELLS FROM LAST STRESS PERIOD

      2 GHB CELLS

 REUSING STREAM SEGMENT DATA FROM LAST STRESS PERIOD



            AREAL INFILTRATION RATE
 READING ON UNIT   19 WITH FORMAT: (10F4.0)            

            1           2           3           4           5           6           7           8           9          10
 ........................................................................................................................
   1   1.2000E-09   0.000       0.000       0.000       0.000       0.000       0.000       0.000       0.000       0.000    
   2   2.1000E-09  2.0000E-09  8.0000E-10  8.5000E-09   0.000       0.000       0.000       0.000       0.000       0.000    
   3   5.0000E-10  1.1000E-09  8.8000E-09  5.5000E-09   0.000       0.000       0.000       0.000       0.000       0.000    
   4   8.5000E-09  1.1000E-09  1.1000E-09  1.1000E-09  2.0000E-09   0.000       0.000       0.000       0.000       0.000    
   5   8.5000E-09  1.1000E-09  1.1000E-09  1.1000E-09  1.1000E-09   0.000       0.000       0.000       0.000       0.000    
   6   8.5000E-09  5.2000E-09  2.1000E-09  1.1000E-09  1.5000E-09   0.000       0.000       0.000       0.000       0.000    
   7   8.5000E-09  5.2000E-09  2.1000E-09  1.2000E-09  2.0000E-09   0.000       0.000       0.000       0.000       0.000    
   8   5.0000E-10  5.2000E-09  2.1000E-09  1.2000E-09  5.0000E-09   0.000       0.000       0.000       0.000       0.000    
   9   5.0000E-10  5.2000E-09  2.1000E-09  1.2000E-09  5.0000E-09   0.000       0.000       0.000       0.000       0.000    
  10   5.0000E-10  5.2000E-09  2.1000E-09  1.2000E-09  5.8000E-09   0.000       0.000       0.000       0.000       0.000    
  11   1.0000E-10  1.1000E-09  1.1000E-09  1.2000E-09  5.0000E-09   0.000       0.000       0.000       0.000       0.000    
  12   1.1000E-09  1.1000E-09  1.1000E-09  1.1000E-09  2.0000E-09   0.000       0.000       0.000       0.000       0.000    
  13   1.1000E-09  2.2000E-09  2.2000E-09  2.1000E-09  1.0000E-09   0.000       0.000       0.000       0.000       0.000    
  14   2.0000E-10  5.5000E-09  5.5000E-09  5.2000E-09  1.0000E-09   0.000       0.000       0.000       0.000       0.000    
  15    0.000      8.8000E-09  8.8000E-09   0.000       0.000       0.000       0.000       0.000       0.000       0.000    

                  ET RATE =  3.250000E-07

 USING ET EXTINCTION DEPTH FROM PREVIOUS STRESS PERIOD. CURRENT PERIOD IS:      45

 USING EXTINCTION WATER CONTENT FROM PREVIOUS STRESS PERIOD. CURRENT PERIOD IS:      45

 USING AIR ENTRY PRESSURE FROM PREVIOUS STRESS PERIOD. CURRENT PERIOD IS:      45

 USING ROOT PRESSURE HEAD FROM PREVIOUS STRESS PERIOD. CURRENT PERIOD IS:      45

 USING ROOT ACTIVITY FROM PREVIOUS STRESS PERIOD. CURRENT PERIOD IS:      45

 PROCESSING AG STRESS PERIOD DATA

 READING AG STRESS PERIOD DATA

 READING IRRIGATION WELL

 END PROCESSING AG STRESS PERIOD DATA OPTIONS
 
 SOLVING FOR HEAD 
                                                   Max.-Head-Change                         Max.-Flux-Residual
  Residual-Control   Outer-Iter.   Inner-Iter.     Column Row Layer    Maximum-Head-Change  Column Row Layer    Maximum-Flux-Residual          L2-NORM 
          0                 1           2             4    7     1      -0.8681713108E-01       4    7    1        -0.4567147580E+01      0.1010797338E+02
          0                 2           2             4    7     1       0.8444764313E-02       4    7    1         0.4567029092E+00      0.1010807576E+01
          0                 3           2             4    7     1      -0.5750588567E-03       4    7    1        -0.3196932958E-01      0.7075663288E-01
          0                 4           1             4    7     1       0.2288212255E-04       4    7    1         0.1307546887E-02      0.2893949911E-02

    ------------------------------------------------
       NWT REQUIRED            4 OUTER ITERATIONS 
       AND A TOTAL OF          7 INNER ITERATIONS.
    ------------------------------------------------

 NO OUTPUT CONTROL FOR STRESS PERIOD   45   TIME STEP    1
 
 SOLVING FOR HEAD 
                                                   Max.-Head-Change                         Max.-Flux-Residual
  Residual-Control   Outer-Iter.   Inner-Iter.     Column Row Layer    Maximum-Head-Change  Column Row Layer    Maximum-Flux-Residual          L2-NORM 
          0                 1           2             4    7     1      -0.8576244779E-01       4    7    1        -0.4510845588E+01      0.1004567216E+02
          0                 2           2             4    7     1       0.8342177870E-02       4    7    1         0.4510730886E+00      0.1004559415E+01
          0                 3           2             4    7     1      -0.5680730453E-03       4    7    1        -0.3157523836E-01      0.7031925856E-01
          0                 4           1             4    7     1       0.2260415075E-04       4    7    1         0.1291428536E-02      0.2876061477E-02

    ------------------------------------------------
       NWT REQUIRED            4 OUTER ITERATIONS 
       AND A TOTAL OF          7 INNER ITERATIONS.
    ------------------------------------------------

 NO OUTPUT CONTROL FOR STRESS PERIOD   45   TIME STEP    2
 
 SOLVING FOR HEAD 
                                                   Max.-Head-Change                         Max.-Flux-Residual
  Residual-Control   Outer-Iter.   Inner-Iter.     Column Row Layer    Maximum-Head-Change  Column Row Layer    Maximum-Flux-Residual          L2-NORM 
          0                 1           2             4    7     1      -0.8473574018E-01       4    7    1        -0.4456048639E+01      0.9984680627E+01
          0                 2           2             4    7     1       0.8242312532E-02       4    7    1         0.4455937564E+00      0.9984604327E+00
          0                 3           2             4    7     1      -0.5612725344E-03       4    7    1        -0.3119168151E-01      0.6989232858E-01
          0                 4           1             4    7     1       0.2233355265E-04       4    7    1         0.1275741077E-02      0.2858600292E-02

    ------------------------------------------------
       NWT REQUIRED            4 OUTER ITERATIONS 
       AND A TOTAL OF          7 INNER ITERATIONS.
    ------------------------------------------------

 NO OUTPUT CONTROL FOR STRESS PERIOD   45   TIME STEP    3
 
 SOLVING FOR HEAD 
                                                   Max.-Head-Change                         Max.-Flux-Residual
  Residual-Control   Outer-Iter.   Inner-Iter.     Column Row Layer    Maximum-Head-Change  Column Row Layer    Maximum-Flux-Residual          L2-NORM 
          0                 1           2             4    7     1      -0.8373587169E-01       4    7    1        -0.4402696008E+01      0.9925065831E+01
          0                 2           2             4    7     1       0.8145057686E-02       4    7    1         0.4402588408E+00      0.9924991166E+00
          0                 3           2             4    7     1      -0.5546497898E-03       4    7    1        -0.3081823398E-01      0.6947503478E-01
          0                 4           1             4    7     1       0.2207002696E-04       4    7    1         0.1260467034E-02      0.2841532384E-02

    ------------------------------------------------
       NWT REQUIRED            4 OUTER ITERATIONS 
       AND A TOTAL OF          7 INNER ITERATIONS.
    ------------------------------------------------

 NO OUTPUT CONTROL FOR STRESS PERIOD   45   TIME STEP    4
 
 SOLVING FOR HEAD 
                                                   Max.-Head-Change                         Max.-Flux-Residual
  Residual-Control   Outer-Iter.   Inner-Iter.     Column Row Layer    Maximum-Head-Change  Column Row Layer    Maximum-Flux-Residual          L2-NORM 
          0                 1           2             4    7     1      -0.8276199110E-01       4    7    1        -0.4350742266E+01      0.9866765123E+01
          0                 2           2             4    7     1       0.8050330542E-02       4    7    1         0.4350637995E+00      0.9866692027E+00
          0                 3           2             4    7     1      -0.5481991752E-03       4    7    1        -0.3045457778E-01      0.6906694035E-01
          0                 4           1             4    7     1       0.2181335182E-04       4    7    1         0.1245593517E-02      0.2824842346E-02

    ------------------------------------------------
       NWT REQUIRED            4 OUTER ITERATIONS 
       AND A TOTAL OF          7 INNER ITERATIONS.
    ------------------------------------------------

 NO OUTPUT CONTROL FOR STRESS PERIOD   45   TIME STEP    5
 
 SOLVING FOR HEAD 
                                                   Max.-Head-Change                         Max.-Flux-Residual
  Residual-Control   Outer-Iter.   Inner-Iter.     Column Row Layer    Maximum-Head-Change  Column Row Layer    Maximum-Flux-Residual          L2-NORM 
          0                 1           2             4    7     1      -0.8181326691E-01       4    7    1        -0.4300143270E+01      0.9809709708E+01
          0                 2           2             4    7     1       0.7949794596E-02       4    7    1         0.4293905486E+00      0.9809104885E+00
          0                 3           2             4    7     1      -0.5413529264E-03       4    7    1        -0.3005744169E-01      0.6866382615E-01
          0                 4           1             4    7     1       0.2154093378E-04       4    7    1         0.1229350677E-02      0.2808354165E-02

    ------------------------------------------------
       NWT REQUIRED            4 OUTER ITERATIONS 
       AND A TOTAL OF          7 INNER ITERATIONS.
    ------------------------------------------------

 NO OUTPUT CONTROL FOR STRESS PERIOD   45   TIME STEP    6
 
 SOLVING FOR HEAD 
                                                   Max.-Head-Change                         Max.-Flux-Residual
  Residual-Control   Outer-Iter.   Inner-Iter.     Column Row Layer    Maximum-Head-Change  Column Row Layer    Maximum-Flux-Residual          L2-NORM 
          0                 1           2             4    7     1      -0.8092260066E-01       4    7    1        -0.4251288722E+01      0.9753887160E+01
          0                 2           2             4    7     1       0.7871423827E-02       4    7    1         0.4251195419E+00      0.9753817434E+00
          0                 3           2             4    7     1      -0.5360161365E-03       4    7    1        -0.2975846906E-01      0.6827681435E-01
          0                 4           1             4    7     1       0.2132857793E-04       4    7    1         0.1217122687E-02      0.2792526534E-02

    ------------------------------------------------
       NWT REQUIRED            4 OUTER ITERATIONS 
       AND A TOTAL OF          7 INNER ITERATIONS.
    ------------------------------------------------

 NO OUTPUT CONTROL FOR STRESS PERIOD   45   TIME STEP    7
 
 SOLVING FOR HEAD 
                                                   Max.-Head-Change                         Max.-Flux-Residual
  Residual-Control   Outer-Iter.   Inner-Iter.     Column Row Layer    Maximum-Head-Change  Column Row Layer    Maximum-Flux-Residual          L2-NORM 
          0                 1           2             4    7     1      -0.8004459855E-01       4    7    1        -0.4204563106E+01      0.9699293804E+01
          0                 2           2             4    7     1       0.7786021933E-02       4    7    1         0.4204472361E+00      0.9699225438E+00
          0                 3           2             4    7     1      -0.5302005472E-03       4    7    1        -0.2943140510E-01      0.6789466810E-01
          0                 4           1             4    7     1       0.2109717007E-04       4    7    1         0.1203745745E-02      0.2776895815E-02

    ------------------------------------------------
       NWT REQUIRED            4 OUTER ITERATIONS 
       AND A TOTAL OF          7 INNER ITERATIONS.
    ------------------------------------------------

 NO OUTPUT CONTROL FOR STRESS PERIOD   45   TIME STEP    8
 
 SOLVING FOR HEAD 
                                                   Max.-Head-Change                         Max.-Flux-Residual
  Residual-Control   Outer-Iter.   Inner-Iter.     Column Row Layer    Maximum-Head-Change  Column Row Layer    Maximum-Flux-Residual          L2-NORM 
          0                 1           2             4    7     1      -0.7918719185E-01       4    7    1        -0.4158942782E+01      0.9645777935E+01
          0                 2           2             4    7     1       0.7702623272E-02       4    7    1         0.4158854504E+00      0.9645710874E+00
          0                 3           2             4    7     1      -0.5245213719E-03       4    7    1        -0.2911207762E-01      0.6752006377E-01
          0                 4           1             4    7     1       0.2087119082E-04       4    7    1         0.1190685254E-02      0.2761590196E-02

    ------------------------------------------------
       NWT REQUIRED            4 OUTER ITERATIONS 
       AND A TOTAL OF          7 INNER ITERATIONS.
    ------------------------------------------------

 NO OUTPUT CONTROL FOR STRESS PERIOD   45   TIME STEP    9
 
 SOLVING FOR HEAD 
                                                   Max.-Head-Change                         Max.-Flux-Residual
  Residual-Control   Outer-Iter.   Inner-Iter.     Column Row Layer    Maximum-Head-Change  Column Row Layer    Maximum-Flux-Residual          L2-NORM 
          0                 1           2             4    7     1      -0.7834983620E-01       4    7    1        -0.4114398544E+01      0.9593322857E+01
          0                 2           2             4    7     1       0.7621174902E-02       4    7    1         0.4114312641E+00      0.9593257058E+00
          0                 3           2             4    7     1      -0.5189750056E-03       4    7    1        -0.2880028220E-01      0.6715288619E-01
          0                 4           1             4    7     1       0.2065049582E-04       4    7    1         0.1177932809E-02      0.2746556403E-02

    ------------------------------------------------
       NWT REQUIRED            4 OUTER ITERATIONS 
       AND A TOTAL OF          7 INNER ITERATIONS.
    ------------------------------------------------

 NO OUTPUT CONTROL FOR STRESS PERIOD   45   TIME STEP   10
 
 SOLVING FOR HEAD 
                                                   Max.-Head-Change                         Max.-Flux-Residual
  Residual-Control   Outer-Iter.   Inner-Iter.     Column Row Layer    Maximum-Head-Change  Column Row Layer    Maximum-Flux-Residual          L2-NORM 
          0                 1           2             4    7     1      -0.7753168452E-01       4    7    1        -0.4070884868E+01      0.9541875750E+01
          0                 2           2             4    7     1       0.7541594428E-02       4    7    1         0.4070801256E+00      0.9541811182E+00
          0                 3           2             4    7     1      -0.5135558374E-03       4    7    1        -0.2849570021E-01      0.6679276378E-01
          0                 4           1             4    7     1       0.2043486205E-04       4    7    1         0.1165475393E-02      0.2731827708E-02

    ------------------------------------------------
       NWT REQUIRED            4 OUTER ITERATIONS 
       AND A TOTAL OF          7 INNER ITERATIONS.
    ------------------------------------------------

 NO OUTPUT CONTROL FOR STRESS PERIOD   45   TIME STEP   11
 
 SOLVING FOR HEAD 
                                                   Max.-Head-Change                         Max.-Flux-Residual
  Residual-Control   Outer-Iter.   Inner-Iter.     Column Row Layer    Maximum-Head-Change  Column Row Layer    Maximum-Flux-Residual          L2-NORM 
          0                 1           2             4    7     1      -0.7673209865E-01       4    7    1        -0.4028367911E+01      0.9491391914E+01
          0                 2           2             4    7     1       0.7463819780E-02       4    7    1         0.4028286508E+00      0.9491317514E+00
          0                 3           2             4    7     1      -0.5082596408E-03       4    7    1        -0.2819809477E-01      0.6643930573E-01
          0                 4           1             4    7     1       0.2022412167E-04       4    7    1         0.1153303335E-02      0.2717370919E-02

    ------------------------------------------------
       NWT REQUIRED            4 OUTER ITERATIONS 
       AND A TOTAL OF          7 INNER ITERATIONS.
    ------------------------------------------------

 NO OUTPUT CONTROL FOR STRESS PERIOD   45   TIME STEP   12
 
 SOLVING FOR HEAD 
                                                   Max.-Head-Change                         Max.-Flux-Residual
  Residual-Control   Outer-Iter.   Inner-Iter.     Column Row Layer    Maximum-Head-Change  Column Row Layer    Maximum-Flux-Residual          L2-NORM 
          0                 1           2             4    7     1      -0.7595071502E-01       4    7    1        -0.3986828060E+01      0.9441862751E+01
          0                 2           2             4    7     1       0.7387815597E-02       4    7    1         0.3986748785E+00      0.9441800676E+00
          0                 3           2             4    7     1      -0.5030840068E-03       4    7    1        -0.2790732855E-01      0.6609268806E-01
          0                 4           1             4    7     1       0.2001817889E-04       4    7    1         0.1141410996E-02      0.2703196479E-02

    ------------------------------------------------
       NWT REQUIRED            4 OUTER ITERATIONS 
       AND A TOTAL OF          7 INNER ITERATIONS.
    ------------------------------------------------

 NO OUTPUT CONTROL FOR STRESS PERIOD   45   TIME STEP   13
 
 SOLVING FOR HEAD 
                                                   Max.-Head-Change                         Max.-Flux-Residual
  Residual-Control   Outer-Iter.   Inner-Iter.     Column Row Layer    Maximum-Head-Change  Column Row Layer    Maximum-Flux-Residual          L2-NORM 
          0                 1           2             4    7     1      -0.7518677793E-01       4    7    1        -0.3946224817E+01      0.9393254720E+01
          0                 2           2             4    7     1       0.7313508374E-02       4    7    1         0.3946147595E+00      0.9393193760E+00
          0                 3           2             4    7     1      -0.4980239306E-03       4    7    1        -0.2762311817E-01      0.6575243801E-01
          0                 4           1             4    7     1       0.1981683326E-04       4    7    1         0.1129786760E-02      0.2689278665E-02

    ------------------------------------------------
       NWT REQUIRED            4 OUTER ITERATIONS 
       AND A TOTAL OF          7 INNER ITERATIONS.
    ------------------------------------------------

 NO OUTPUT CONTROL FOR STRESS PERIOD   45   TIME STEP   14
 
 SOLVING FOR HEAD 
                                                   Max.-Head-Change                         Max.-Flux-Residual
  Residual-Control   Outer-Iter.   Inner-Iter.     Column Row Layer    Maximum-Head-Change  Column Row Layer    Maximum-Flux-Residual          L2-NORM 
          0                 1           2             4    7     1      -0.7443982402E-01       4    7    1        -0.3906533424E+01      0.9345534037E+01
          0                 2           2             4    7     1       0.7240853043E-02       4    7    1         0.3906458181E+00      0.9345474165E+00
          0                 3           2             4    7     1      -0.4930763434E-03       4    7    1        -0.2734529026E-01      0.6541839938E-01
          0                 4           1             4    7     1       0.1961996449E-04       4    7    1         0.1118423606E-02      0.2675616177E-02

    ------------------------------------------------
       NWT REQUIRED            4 OUTER ITERATIONS 
       AND A TOTAL OF          7 INNER ITERATIONS.
    ------------------------------------------------

 NO OUTPUT CONTROL FOR STRESS PERIOD   45   TIME STEP   15
 
 SOLVING FOR HEAD 
                                                   Max.-Head-Change                         Max.-Flux-Residual
  Residual-Control   Outer-Iter.   Inner-Iter.     Column Row Layer    Maximum-Head-Change  Column Row Layer    Maximum-Flux-Residual          L2-NORM 
          0                 1           2             4    7     1      -0.7370929140E-01       4    7    1        -0.3867723596E+01      0.9298668361E+01
          0                 2           2             4    7     1       0.7169794954E-02       4    7    1         0.3867650262E+00      0.9298609537E+00
          0                 3           2             4    7     1      -0.4882375236E-03       4    7    1        -0.2707363292E-01      0.6509034543E-01
          0                 4           1             4    7     1       0.1942742325E-04       4    7    1         0.1107312808E-02      0.2662198639E-02

    ------------------------------------------------
       NWT REQUIRED            4 OUTER ITERATIONS 
       AND A TOTAL OF          7 INNER ITERATIONS.
    ------------------------------------------------

 NO OUTPUT CONTROL FOR STRESS PERIOD   45   TIME STEP   16
 
 SOLVING FOR HEAD 
                                                   Max.-Head-Change                         Max.-Flux-Residual
  Residual-Control   Outer-Iter.   Inner-Iter.     Column Row Layer    Maximum-Head-Change  Column Row Layer    Maximum-Flux-Residual          L2-NORM 
          0                 1           2             4    7     1      -0.7299458875E-01       4    7    1        -0.3829763338E+01      0.9252642025E+01
          0                 2           2             4    7     1       0.7100276591E-02       4    7    1         0.3829691845E+00      0.9252584214E+00
          0                 3           2             4    7     1      -0.4835035543E-03       4    7    1        -0.2680792213E-01      0.6476816736E-01
          0                 4           1             4    7     1       0.1923905481E-04       4    7    1         0.1096445240E-02      0.2649021948E-02

    ------------------------------------------------
       NWT REQUIRED            4 OUTER ITERATIONS 
       AND A TOTAL OF          7 INNER ITERATIONS.
    ------------------------------------------------

 NO OUTPUT CONTROL FOR STRESS PERIOD   45   TIME STEP   17
 
 SOLVING FOR HEAD 
                                                   Max.-Head-Change                         Max.-Flux-Residual
  Residual-Control   Outer-Iter.   Inner-Iter.     Column Row Layer    Maximum-Head-Change  Column Row Layer    Maximum-Flux-Residual          L2-NORM 
          0                 1           2             4    7     1      -0.7229519280E-01       4    7    1        -0.3792624849E+01      0.9207422451E+01
          0                 2           2             4    7     1       0.7032247058E-02       4    7    1         0.3792555134E+00      0.9207365639E+00
          0                 3           2             4    7     1      -0.4788709694E-03       4    7    1        -0.2654796337E-01      0.6445163528E-01
          0                 4           1             4    7     1       0.1905471975E-04       4    7    1         0.1085812903E-02      0.2636075666E-02

    ------------------------------------------------
       NWT REQUIRED            4 OUTER ITERATIONS 
       AND A TOTAL OF          7 INNER ITERATIONS.
    ------------------------------------------------

 NO OUTPUT CONTROL FOR STRESS PERIOD   45   TIME STEP   18
 
 SOLVING FOR HEAD 
                                                   Max.-Head-Change                         Max.-Flux-Residual
  Residual-Control   Outer-Iter.   Inner-Iter.     Column Row Layer    Maximum-Head-Change  Column Row Layer    Maximum-Flux-Residual          L2-NORM 
          0                 1           2             4    7     1      -0.7161073764E-01       4    7    1        -0.3756288205E+01      0.9162998577E+01
          0                 2           2             4    7     1       0.6965670765E-02       4    7    1         0.3756220205E+00      0.9162942804E+00
          0                 3           2             4    7     1      -0.4743373464E-03       4    7    1        -0.2629361715E-01      0.6414067997E-01
          0                 4           1             4    7     1       0.1887432286E-04       4    7    1         0.1075410147E-02      0.2623404813E-02

    ------------------------------------------------
       NWT REQUIRED            4 OUTER ITERATIONS 
       AND A TOTAL OF          7 INNER ITERATIONS.
    ------------------------------------------------

 NO OUTPUT CONTROL FOR STRESS PERIOD   45   TIME STEP   19
 
 SOLVING FOR HEAD 
                                                   Max.-Head-Change                         Max.-Flux-Residual
  Residual-Control   Outer-Iter.   Inner-Iter.     Column Row Layer    Maximum-Head-Change  Column Row Layer    Maximum-Flux-Residual          L2-NORM 
          0                 1           2             4    7     1      -0.7094068431E-01       4    7    1        -0.3720724362E+01      0.9119344356E+01
          0                 2           2             4    7     1       0.6900495289E-02       4    7    1         0.3720658018E+00      0.9119289495E+00
          0                 3           2             4    7     1      -0.4698991142E-03       4    7    1        -0.2604468015E-01      0.6383510026E-01
          0                 4           1             4    7     1       0.1869772172E-04       4    7    1         0.1065228623E-02      0.2610859164E-02

    ------------------------------------------------
       NWT REQUIRED            4 OUTER ITERATIONS 
       AND A TOTAL OF          7 INNER ITERATIONS.
    ------------------------------------------------

 NO OUTPUT CONTROL FOR STRESS PERIOD   45   TIME STEP   20
 
 SOLVING FOR HEAD 
                                                   Max.-Head-Change                         Max.-Flux-Residual
  Residual-Control   Outer-Iter.   Inner-Iter.     Column Row Layer    Maximum-Head-Change  Column Row Layer    Maximum-Flux-Residual          L2-NORM 
          0                 1           2             4    7     1      -0.7028445082E-01       4    7    1        -0.3685901986E+01      0.9076431179E+01
          0                 2           2             4    7     1       0.6836664024E-02       4    7    1         0.3685837240E+00      0.9076377242E+00
          0                 3           2             4    7     1      -0.4655524183E-03       4    7    1        -0.2580093308E-01      0.6353471301E-01
          0                 4           1             4    7     1       0.1852476253E-04       4    7    1         0.1055259351E-02      0.2598573461E-02

    ------------------------------------------------
       NWT REQUIRED            4 OUTER ITERATIONS 
       AND A TOTAL OF          7 INNER ITERATIONS.
    ------------------------------------------------

 NO OUTPUT CONTROL FOR STRESS PERIOD   45   TIME STEP   21
 
 SOLVING FOR HEAD 
                                                   Max.-Head-Change                         Max.-Flux-Residual
  Residual-Control   Outer-Iter.   Inner-Iter.     Column Row Layer    Maximum-Head-Change  Column Row Layer    Maximum-Flux-Residual          L2-NORM 
          0                 1           2             4    7     1      -0.6964180773E-01       4    7    1        -0.3651808698E+01      0.9034256234E+01
          0                 2           2             4    7     1       0.6774154656E-02       4    7    1         0.3651745497E+00      0.9034203163E+00
          0                 3           2             4    7     1      -0.4612957401E-03       4    7    1        -0.2556228934E-01      0.6323949430E-01
          0                 4           1             4    7     1       0.1835538520E-04       4    7    1         0.1045498810E-02      0.2586501514E-02

    ------------------------------------------------
       NWT REQUIRED            4 OUTER ITERATIONS 
       AND A TOTAL OF          7 INNER ITERATIONS.
    ------------------------------------------------

 NO OUTPUT CONTROL FOR STRESS PERIOD   45   TIME STEP   22
 
 SOLVING FOR HEAD 
                                                   Max.-Head-Change                         Max.-Flux-Residual
  Residual-Control   Outer-Iter.   Inner-Iter.     Column Row Layer    Maximum-Head-Change  Column Row Layer    Maximum-Flux-Residual          L2-NORM 
          0                 1           2             4    7     1      -0.6901220336E-01       4    7    1        -0.3618414803E+01      0.8992787519E+01
          0                 2           2             4    7     1       0.6712913521E-02       4    7    1         0.3618353095E+00      0.8992735314E+00
          0                 3           2             4    7     1      -0.4571254242E-03       4    7    1        -0.2532854100E-01      0.6294921702E-01
          0                 4           1             4    7     1       0.1818944488E-04       4    7    1         0.1035938513E-02      0.2574626980E-02

    ------------------------------------------------
       NWT REQUIRED            4 OUTER ITERATIONS 
       AND A TOTAL OF          7 INNER ITERATIONS.
    ------------------------------------------------

 NO OUTPUT CONTROL FOR STRESS PERIOD   45   TIME STEP   23
 
 SOLVING FOR HEAD 
                                                   Max.-Head-Change                         Max.-Flux-Residual
  Residual-Control   Outer-Iter.   Inner-Iter.     Column Row Layer    Maximum-Head-Change  Column Row Layer    Maximum-Flux-Residual          L2-NORM 
          0                 1           2             4    7     1      -0.6839532649E-01       4    7    1        -0.3585703240E+01      0.8952020760E+01
          0                 2           2             4    7     1       0.6652910352E-02       4    7    1         0.3585642974E+00      0.8951969389E+00
          0                 3           2             4    7     1      -0.4530394101E-03       4    7    1        -0.2509956870E-01      0.6266385529E-01
          0                 4           1             4    7     1       0.1802685857E-04       4    7    1         0.1026573525E-02      0.2562954306E-02

    ------------------------------------------------
       NWT REQUIRED            4 OUTER ITERATIONS 
       AND A TOTAL OF          7 INNER ITERATIONS.
    ------------------------------------------------

 NO OUTPUT CONTROL FOR STRESS PERIOD   45   TIME STEP   24
 
 SOLVING FOR HEAD 
                                                   Max.-Head-Change                         Max.-Flux-Residual
  Residual-Control   Outer-Iter.   Inner-Iter.     Column Row Layer    Maximum-Head-Change  Column Row Layer    Maximum-Flux-Residual          L2-NORM 
          0                 1           2             4    7     1      -0.6779075547E-01       4    7    1        -0.3553651623E+01      0.8911928669E+01
          0                 2           2             4    7     1       0.6594104137E-02       4    7    1         0.3553592751E+00      0.8911877994E+00
          0                 3           2             4    7     1      -0.4490349047E-03       4    7    1        -0.2487521571E-01      0.6238321404E-01
          0                 4           1             4    7     1       0.1786751553E-04       4    7    1         0.1017397486E-02      0.2551477016E-02

    ------------------------------------------------
       NWT REQUIRED            4 OUTER ITERATIONS 
       AND A TOTAL OF          7 INNER ITERATIONS.
    ------------------------------------------------

 NO OUTPUT CONTROL FOR STRESS PERIOD   45   TIME STEP   25
 
 SOLVING FOR HEAD 
                                                   Max.-Head-Change                         Max.-Flux-Residual
  Residual-Control   Outer-Iter.   Inner-Iter.     Column Row Layer    Maximum-Head-Change  Column Row Layer    Maximum-Flux-Residual          L2-NORM 
          0                 1           2             4    7     1      -0.6719810808E-01       4    7    1        -0.3522239043E+01      0.8872497300E+01
          0                 2           2             4    7     1       0.6536457696E-02       4    7    1         0.3522181519E+00      0.8872447121E+00
          0                 3           2             4    7     1      -0.4451093762E-03       4    7    1        -0.2465533571E-01      0.6210719558E-01
          0                 4           1             4    7     1       0.1771131535E-04       4    7    1         0.1008404384E-02      0.2540187328E-02

    ------------------------------------------------
       NWT REQUIRED            4 OUTER ITERATIONS 
       AND A TOTAL OF          7 INNER ITERATIONS.
    ------------------------------------------------

 NO OUTPUT CONTROL FOR STRESS PERIOD   45   TIME STEP   26
 
 SOLVING FOR HEAD 
                                                   Max.-Head-Change                         Max.-Flux-Residual
  Residual-Control   Outer-Iter.   Inner-Iter.     Column Row Layer    Maximum-Head-Change  Column Row Layer    Maximum-Flux-Residual          L2-NORM 
          0                 1           2             4    7     1      -0.6661696425E-01       4    7    1        -0.3491442819E+01      0.8833712140E+01
          0                 2           2             4    7     1       0.6479930175E-02       4    7    1         0.3491386598E+00      0.8833662723E+00
          0                 3           2             4    7     1      -0.4412600428E-03       4    7    1        -0.2443976995E-01      0.6183570411E-01
          0                 4           1             4    7     1       0.1755814671E-04       4    7    1         0.9995877410E-03      0.2529083384E-02

    ------------------------------------------------
       NWT REQUIRED            4 OUTER ITERATIONS 
       AND A TOTAL OF          7 INNER ITERATIONS.
    ------------------------------------------------

 NO OUTPUT CONTROL FOR STRESS PERIOD   45   TIME STEP   27
 
 SOLVING FOR HEAD 
                                                   Max.-Head-Change                         Max.-Flux-Residual
  Residual-Control   Outer-Iter.   Inner-Iter.     Column Row Layer    Maximum-Head-Change  Column Row Layer    Maximum-Flux-Residual          L2-NORM 
          0                 1           2             4    7     1      -0.6604698690E-01       4    7    1        -0.3461244986E+01      0.8795555818E+01
          0                 2           2             4    7     1       0.6424488785E-02       4    7    1         0.3461190027E+00      0.8795507158E+00
          0                 3           2             4    7     1      -0.4374846713E-03       4    7    1        -0.2422839266E-01      0.6156861396E-01
          0                 4           1             4    7     1       0.1740792108E-04       4    7    1         0.9909423950E-03      0.2518160133E-02

    ------------------------------------------------
       NWT REQUIRED            4 OUTER ITERATIONS 
       AND A TOTAL OF          7 INNER ITERATIONS.
    ------------------------------------------------

 NO OUTPUT CONTROL FOR STRESS PERIOD   45   TIME STEP   28
 
 SOLVING FOR HEAD 
                                                   Max.-Head-Change                         Max.-Flux-Residual
  Residual-Control   Outer-Iter.   Inner-Iter.     Column Row Layer    Maximum-Head-Change  Column Row Layer    Maximum-Flux-Residual          L2-NORM 
          0                 1           2             4    7     1      -0.6548780518E-01       4    7    1        -0.3431625205E+01      0.8758014692E+01
          0                 2           2             4    7     1       0.6370097457E-02       4    7    1         0.3431571467E+00      0.8757966776E+00
          0                 3           2             4    7     1      -0.4337808059E-03       4    7    1        -0.2402106149E-01      0.6130583094E-01
          0                 4           1             4    7     1       0.1726054117E-04       4    7    1         0.9824625508E-03      0.2507414024E-02

    ------------------------------------------------
       NWT REQUIRED            4 OUTER ITERATIONS 
       AND A TOTAL OF          7 INNER ITERATIONS.
    ------------------------------------------------

 NO OUTPUT CONTROL FOR STRESS PERIOD   45   TIME STEP   29
 
 SOLVING FOR HEAD 
                                                   Max.-Head-Change                         Max.-Flux-Residual
  Residual-Control   Outer-Iter.   Inner-Iter.     Column Row Layer    Maximum-Head-Change  Column Row Layer    Maximum-Flux-Residual          L2-NORM 
          0                 1           2             4    7     1      -0.6493934200E-01       4    7    1        -0.3402579590E+01      0.8721079902E+01
          0                 2           2             4    7     1       0.6316748693E-02       4    7    1         0.3402527033E+00      0.8721032704E+00
          0                 3           2             4    7     1      -0.4301479352E-03       4    7    1        -0.2381774923E-01      0.6104729022E-01
          0                 4           1             4    7     1       0.1711598558E-04       4    7    1         0.9741470644E-03      0.2496837794E-02

    ------------------------------------------------
       NWT REQUIRED            4 OUTER ITERATIONS 
       AND A TOTAL OF          7 INNER ITERATIONS.
    ------------------------------------------------

 NO OUTPUT CONTROL FOR STRESS PERIOD   45   TIME STEP   30



 STREAM LISTING     PERIOD     45   STEP       30

 LAYER ROW COL. STREAM  RCH.  FLOW INTO     FLOW TO   FLOW OUT OF   OVRLND.     DIRECT     STREAM       STREAM     STREAM     STREAM   STREAMBED  STREAMBED
                SEG.NO.  NO.  STRM. RCH.    AQUIFER    STRM. RCH.    RUNOFF     PRECIP       ET          HEAD       DEPTH      WIDTH   CONDCTNC.   GRADIENT

   1    1    1     1     1    1.9000E+01  2.1427E-01   1.8786E+01  0.000E+00  0.000E+00  0.000E+00  1.09413E+03  1.082E+00  1.166E+01  5.249E-02  1.361E+00
   1    2    2     1     2    1.8786E+01  3.3054E-01   1.8455E+01  0.000E+00  0.000E+00  0.000E+00  1.08914E+03  1.077E+00  1.158E+01  8.107E-02  1.359E+00
   1    3    3     1     3    1.8455E+01  2.8064E-01   1.8175E+01  0.000E+00  0.000E+00  0.000E+00  1.08349E+03  1.072E+00  1.149E+01  6.892E-02  1.357E+00
   1    3    4     1     4    1.8175E+01  2.5740E-01   1.7917E+01  0.000E+00  0.000E+00  0.000E+00  1.07848E+03  1.068E+00  1.140E+01  6.328E-02  1.356E+00
   1    4    5     2     1    1.5917E+01  3.0542E-01   1.5612E+01  0.000E+00  0.000E+00  0.000E+00  1.07285E+03  9.157E-01  1.200E+01  7.800E-02  1.305E+00
   1    5    6     2     2    1.5612E+01  2.3438E-01   1.5377E+01  0.000E+00  0.000E+00  0.000E+00  1.06742E+03  9.063E-01  1.200E+01  6.000E-02  1.302E+00
   1    6    6     2     3    1.5377E+01  2.3388E-01   1.5143E+01  0.000E+00  0.000E+00  0.000E+00  1.06269E+03  8.980E-01  1.200E+01  6.000E-02  1.299E+00
   1    7    6     2     4    1.5143E+01  2.3338E-01   1.4910E+01  0.000E+00  0.000E+00  0.000E+00  1.05797E+03  8.897E-01  1.200E+01  6.000E-02  1.297E+00
   1    8    6     2     5    1.4910E+01  2.3289E-01   1.4677E+01  0.000E+00  0.000E+00  0.000E+00  1.05324E+03  8.814E-01  1.200E+01  6.000E-02  1.294E+00
   1    3    5     3     1    2.0000E+00  2.8252E-01   1.7175E+00  0.000E+00  0.000E+00  0.000E+00  1.07555E+03  1.909E+00  9.636E+00  7.227E-02  1.955E+00
   1    3    6     3     2    1.7175E+00  2.4905E-01   1.4684E+00  0.000E+00  0.000E+00  0.000E+00  1.07264E+03  1.727E+00  8.909E+00  6.682E-02  1.864E+00
   1    3    7     3     3    1.4684E+00  1.9718E-01   1.2712E+00  0.000E+00  0.000E+00  0.000E+00  1.06987E+03  1.555E+00  8.218E+00  5.547E-02  1.777E+00
   1    4    8     3     4    1.2712E+00  2.2567E-01   1.0456E+00  0.000E+00  0.000E+00  0.000E+00  1.06682E+03  1.364E+00  7.455E+00  6.709E-02  1.682E+00
   1    5    8     3     5    1.0456E+00  1.5790E-01   8.8768E-01  0.000E+00  0.000E+00  0.000E+00  1.06362E+03  1.164E+00  6.655E+00  4.991E-02  1.582E+00
   1    6    8     3     6    8.8768E-01  5.5980E-02   8.3170E-01  0.000E+00  0.000E+00  0.000E+00  1.06158E+03  1.036E+00  6.145E+00  1.844E-02  1.518E+00
   1    5   10     4     1    1.0000E+01  9.0919E-02   9.9091E+00  0.000E+00  0.000E+00  0.000E+00  1.07836E+03  6.368E-01  1.000E+01  2.500E-02  1.212E+00
   1    5    9     4     2    9.9091E+00  1.8158E-01   9.7275E+00  0.000E+00  0.000E+00  0.000E+00  1.07154E+03  6.315E-01  1.000E+01  5.000E-02  1.211E+00
   1    6    8     4     3    9.7275E+00  1.2689E-01   9.6006E+00  0.000E+00  0.000E+00  0.000E+00  1.06381E+03  6.256E-01  1.000E+01  3.500E-02  1.209E+00
   1    6    8     5     1    1.0432E+01  2.2686E-01   1.0205E+01  0.000E+00  0.000E+00  0.000E+00  1.05868E+03  6.790E-01  1.542E+01  6.166E-02  1.226E+00
   1    7    7     5     2    1.0205E+01  2.7894E-01   9.9265E+00  0.000E+00  0.000E+00  0.000E+00  1.05417E+03  6.732E-01  1.519E+01  7.594E-02  1.224E+00
   1    8    7     5     3    9.9265E+00  1.9221E-01   9.7343E+00  0.000E+00  0.000E+00  0.000E+00  1.04992E+03  6.676E-01  1.497E+01  5.241E-02  1.223E+00
   1    8    6     5     4    9.7343E+00  1.3577E-01   9.5985E+00  0.000E+00  0.000E+00  0.000E+00  1.04691E+03  6.637E-01  1.482E+01  3.706E-02  1.221E+00
   1    9    6     6     1    2.4276E+01  2.5176E-01   2.4024E+01  0.000E+00  0.000E+00  0.000E+00  1.04392E+03  1.196E+00  1.200E+01  6.000E-02  1.399E+00
   1   10    7     6     2    2.4024E+01  2.5131E-01   2.3773E+01  0.000E+00  0.000E+00  0.000E+00  1.03937E+03  1.188E+00  1.200E+01  6.000E-02  1.396E+00
   1   11    7     6     3    2.3773E+01  2.5086E-01   2.3522E+01  0.000E+00  0.000E+00  0.000E+00  1.03482E+03  1.181E+00  1.200E+01  6.000E-02  1.394E+00
   1   12    7     6     4    2.3522E+01  2.5041E-01   2.3271E+01  0.000E+00  0.000E+00  0.000E+00  1.03026E+03  1.173E+00  1.200E+01  6.000E-02  1.391E+00
   1   13    7     6     5    2.3271E+01  1.1454E-02   2.3260E+01  0.000E+00  0.000E+00  0.000E+00  1.02708E+03  1.169E+00  1.200E+01  2.400E-02  1.591E-01
   1   14    9     7     1    1.5000E+02  1.3750E+00   1.4863E+02  0.000E+00  0.000E+00  0.000E+00  1.03987E+03  2.288E+00  5.529E+01  5.593E-01  8.195E-01
   1   13    8     7     2    1.4863E+02  1.9807E+00   1.4664E+02  0.000E+00  0.000E+00  0.000E+00  1.03478E+03  2.279E+00  5.525E+01  6.147E-01  1.074E+00
   1   13    7     7     3    1.4664E+02  1.7236E+00   1.4492E+02  0.000E+00  0.000E+00  0.000E+00  1.02969E+03  2.269E+00  5.521E+01  5.584E-01  1.029E+00
   1   13    6     8     1    1.6818E+02  1.1536E+00   1.6703E+02  0.000E+00  0.000E+00  0.000E+00  1.02481E+03  2.937E+00  4.258E+01  4.339E-01  8.862E-01
   1   13    5     8     2    1.6703E+02  3.8644E-01   1.6664E+02  0.000E+00  0.000E+00  0.000E+00  1.01856E+03  2.931E+00  4.251E+01  4.332E-01  2.974E-01
   1   13    4     8     3    1.6664E+02 -1.7383E+00   1.6838E+02  0.000E+00  0.000E+00  0.000E+00  1.01231E+03  2.936E+00  4.257E+01  4.338E+00 -1.336E-01
   1   13    3     8     4    1.6838E+02 -3.3032E+00   1.7168E+02  0.000E+00  0.000E+00  0.000E+00  1.00608E+03  2.952E+00  4.281E+01  4.362E+00 -2.524E-01
   1   13    2     8     5    1.7168E+02 -2.4881E+00   1.7417E+02  0.000E+00  0.000E+00  0.000E+00  9.99846E+02  2.971E+00  4.308E+01  4.390E+00 -1.889E-01
   1   13    1     8     6    1.7417E+02 -1.9585E+00   1.7613E+02  0.000E+00  0.000E+00  0.000E+00  9.94860E+02  2.985E+00  4.329E+01  2.647E+00 -2.467E-01





UNSATURATED ZONE PACKAGE VOLUMETRIC BUDGET FOR  TIME STEP    30 STRESS PERIOD   45
  ------------------------------------------------------------------------------



     CUMULATIVE VOLUMES      L**3       RATES FOR THIS TIME STEP      L**3/T
     ------------------                 ------------------------

           IN:                                      IN:
           ---                                      ---
        INFILTRATION =  2072798455.9165          INFILTRATION =          52.8152

          OUT:                                     OUT:
          ----                                     ----
              UZF ET =  1946970732.3617                UZF ET =          52.8575
        UZF RECHARGE =     1376196.3571          UZF RECHARGE =           0.0011

            IN - OUT =   124451527.1977              IN - OUT =      -4.3419E-02

          STORAGE:                                 STORAGE:
          --------                                 --------
      STORAGE CHANGE =   124452445.6340        STORAGE CHANGE =      -4.3418E-02

 PERCENT DISCREPANCY IS DIFFERENCE BETWEEN IN-OUT MINUS CHANGE IN STORAGE
 DIVIDED BY THE AVERAGE OF IN AND OUT TIMES 100

 PERCENT DISCREPANCY =          -0.00     PERCENT DISCREPANCY =           0.00






1
  VOLUMETRIC BUDGET FOR AGRICULTURAL FIELDS AT TIME STEP   30, STRESS PERIOD  45
  ------------------------------------------------------------------------------

     CUMULATIVE VOLUMES      L**3       RATES FOR THIS TIME STEP      L**3/T
     ------------------                 ------------------------

           IN:                                      IN:
           ---                                      ---
               AG WELLS  =  1562689024.0000                 AG WELLS  =          48.4077
      DIVERSION SEGMENTS =           0.0000        DIVERSION SEGMENTS =           0.0000
           GW IRRIGATION =           0.0000             GW IRRIGATION =           0.0000
           SW IRRIGATION =           0.0000             SW IRRIGATION =           0.0000
        SYSTEM LOSSES GW =           0.0000          SYSTEM LOSSES GW =           0.0000
        SYSTEM LOSSES SW =           0.0000          SYSTEM LOSSES SW =           0.0000

                TOTAL IN =  1562689024.0000                  TOTAL IN =          48.4077

          OUT:                                     OUT:
          ----                                     ----
               AG WELLS  =           0.0000                 AG WELLS  =           0.0000
      DIVERSION SEGMENTS =           0.0000        DIVERSION SEGMENTS =           0.0000
           GW IRRIGATION =  1562689024.0000             GW IRRIGATION =          48.4077
           SW IRRIGATION =           0.0000             SW IRRIGATION =           0.0000
        SYSTEM LOSSES GW =           0.0000          SYSTEM LOSSES GW =           0.0000
        SYSTEM LOSSES SW =           0.0000          SYSTEM LOSSES SW =           0.0000

               TOTAL OUT =  1562689024.0000                 TOTAL OUT =          48.4077

                IN - OUT =           0.0000                  IN - OUT =           0.0000

     PERCENT DISCREPANCY =           0.00         PERCENT DISCREPANCY =           0.00



1
  VOLUMETRIC BUDGET FOR ENTIRE MODEL AT END OF TIME STEP   30, STRESS PERIOD  45
  ------------------------------------------------------------------------------

     CUMULATIVE VOLUMES      L**3       RATES FOR THIS TIME STEP      L**3/T
     ------------------                 ------------------------

           IN:                                      IN:
           ---                                      ---
             STORAGE     =  2027486848.0000               STORAGE     =          45.5517
       CONSTANT HEAD     =           0.0000         CONSTANT HEAD     =           0.0000
     HEAD DEP BOUNDS     =    33144182.0000       HEAD DEP BOUNDS     =           0.2884
      STREAM LEAKAGE     =  1418114944.0000        STREAM LEAKAGE     =          12.3593
        UZF RECHARGE     =     1376195.3750          UZF RECHARGE     =       1.1277E-03
               GW ET     =           0.0000                 GW ET     =           0.0000
     SURFACE LEAKAGE     =           0.0000       SURFACE LEAKAGE     =           0.0000
           AG WELLS      =           0.0000             AG WELLS      =           0.0000

                TOTAL IN =  3480122368.0000                  TOTAL IN =          58.2006

          OUT:                                     OUT:
          ----                                     ----
             STORAGE     =   691262784.0000               STORAGE     =       1.6119E-02
       CONSTANT HEAD     =           0.0000         CONSTANT HEAD     =           0.0000
     HEAD DEP BOUNDS     =    33792352.0000       HEAD DEP BOUNDS     =           0.2888
      STREAM LEAKAGE     =  1175036544.0000        STREAM LEAKAGE     =           9.4881
        UZF RECHARGE     =           0.0000          UZF RECHARGE     =           0.0000
               GW ET     =    17343536.0000                 GW ET     =           0.0000
     SURFACE LEAKAGE     =           0.0000       SURFACE LEAKAGE     =           0.0000
           AG WELLS      =  1562689024.0000             AG WELLS      =          48.4077

               TOTAL OUT =  3480124160.0000                 TOTAL OUT =          58.2008

                IN - OUT =       -1792.0000                  IN - OUT =      -1.6022E-04

     PERCENT DISCREPANCY =          -0.00         PERCENT DISCREPANCY =          -0.00






         TIME SUMMARY AT END OF TIME STEP   30 IN STRESS PERIOD   45
                    SECONDS     MINUTES      HOURS       DAYS        YEARS
                    -----------------------------------------------------------
   TIME STEP LENGTH  87667.      1461.1      24.352      1.0147     2.77799E-03
 STRESS PERIOD TIME 2.63000E+06  43833.      730.56      30.440     8.33397E-02
         TOTAL TIME 1.15805E+08 1.93009E+06  32168.      1340.3      3.6696    
1
1
                            STRESS PERIOD NO.   46, LENGTH =   2630000.    
                            -----------------------------------------------

                              NUMBER OF TIME STEPS =    30

                               MULTIPLIER FOR DELT =     1.000

                            INITIAL TIME STEP SIZE =   87666.66    

 REUSING NON-PARAMETER GHB CELLS FROM LAST STRESS PERIOD

      2 GHB CELLS

 REUSING STREAM SEGMENT DATA FROM LAST STRESS PERIOD



            AREAL INFILTRATION RATE
 READING ON UNIT   19 WITH FORMAT: (10F4.0)            

            1           2           3           4           5           6           7           8           9          10
 ........................................................................................................................
   1   1.2000E-09   0.000       0.000       0.000       0.000       0.000       0.000       0.000       0.000       0.000    
   2   2.1000E-09  2.0000E-09  8.0000E-10  8.5000E-09   0.000       0.000       0.000       0.000       0.000       0.000    
   3   5.0000E-10  1.1000E-09  8.8000E-09  5.5000E-09   0.000       0.000       0.000       0.000       0.000       0.000    
   4   8.5000E-09  1.1000E-09  1.1000E-09  1.1000E-09  2.0000E-09   0.000       0.000       0.000       0.000       0.000    
   5   8.5000E-09  1.1000E-09  1.1000E-09  1.1000E-09  1.1000E-09   0.000       0.000       0.000       0.000       0.000    
   6   8.5000E-09  5.2000E-09  2.1000E-09  1.1000E-09  1.5000E-09   0.000       0.000       0.000       0.000       0.000    
   7   8.5000E-09  5.2000E-09  2.1000E-09  1.2000E-09  2.0000E-09   0.000       0.000       0.000       0.000       0.000    
   8   5.0000E-10  5.2000E-09  2.1000E-09  1.2000E-09  5.0000E-09   0.000       0.000       0.000       0.000       0.000    
   9   5.0000E-10  5.2000E-09  2.1000E-09  1.2000E-09  5.0000E-09   0.000       0.000       0.000       0.000       0.000    
  10   5.0000E-10  5.2000E-09  2.1000E-09  1.2000E-09  5.8000E-09   0.000       0.000       0.000       0.000       0.000    
  11   1.0000E-10  1.1000E-09  1.1000E-09  1.2000E-09  5.0000E-09   0.000       0.000       0.000       0.000       0.000    
  12   1.1000E-09  1.1000E-09  1.1000E-09  1.1000E-09  2.0000E-09   0.000       0.000       0.000       0.000       0.000    
  13   1.1000E-09  2.2000E-09  2.2000E-09  2.1000E-09  1.0000E-09   0.000       0.000       0.000       0.000       0.000    
  14   2.0000E-10  5.5000E-09  5.5000E-09  5.2000E-09  1.0000E-09   0.000       0.000       0.000       0.000       0.000    
  15    0.000      8.8000E-09  8.8000E-09   0.000       0.000       0.000       0.000       0.000       0.000       0.000    

                  ET RATE =  7.500000E-08

 USING ET EXTINCTION DEPTH FROM PREVIOUS STRESS PERIOD. CURRENT PERIOD IS:      46

 USING EXTINCTION WATER CONTENT FROM PREVIOUS STRESS PERIOD. CURRENT PERIOD IS:      46

 USING AIR ENTRY PRESSURE FROM PREVIOUS STRESS PERIOD. CURRENT PERIOD IS:      46

 USING ROOT PRESSURE HEAD FROM PREVIOUS STRESS PERIOD. CURRENT PERIOD IS:      46

 USING ROOT ACTIVITY FROM PREVIOUS STRESS PERIOD. CURRENT PERIOD IS:      46

 PROCESSING AG STRESS PERIOD DATA

 READING AG STRESS PERIOD DATA

 READING IRRIGATION WELL

 END PROCESSING AG STRESS PERIOD DATA OPTIONS
 
 SOLVING FOR HEAD 
                                                   Max.-Head-Change                         Max.-Flux-Residual
  Residual-Control   Outer-Iter.   Inner-Iter.     Column Row Layer    Maximum-Head-Change  Column Row Layer    Maximum-Flux-Residual          L2-NORM 
          0                 1           2             5    8     1       0.7117786836E-01       5    8    1         0.3872000450E+01      0.1006281648E+02
          0                 2           2             5    8     1      -0.6923561407E-02       5    8    1        -0.3871927977E+00      0.1006259535E+01
          0                 3           2             5    8     1       0.4714677986E-03       5    8    1         0.2710345803E-01      0.7043816072E-01
          0                 4           1             5    8     1      -0.1876218961E-04       5    8    1        -0.1108651854E-02      0.2881289682E-02

    ------------------------------------------------
       NWT REQUIRED            4 OUTER ITERATIONS 
       AND A TOTAL OF          7 INNER ITERATIONS.
    ------------------------------------------------

 NO OUTPUT CONTROL FOR STRESS PERIOD   46   TIME STEP    1
 
 SOLVING FOR HEAD 
                                                   Max.-Head-Change                         Max.-Flux-Residual
  Residual-Control   Outer-Iter.   Inner-Iter.     Column Row Layer    Maximum-Head-Change  Column Row Layer    Maximum-Flux-Residual          L2-NORM 
          0                 1           2             5    8     1       0.6803468169E-01       5    8    1         0.3697959839E+01      0.9743080294E+01
          0                 2           2             5    8     1      -0.6617822196E-02       5    8    1        -0.3697892314E+00      0.9742880923E+00
          0                 3           2             5    8     1       0.4506480220E-03       5    8    1         0.2588520319E-01      0.6820013054E-01
          0                 4           1             5    8     1      -0.1793375154E-04       5    8    1        -0.1058825192E-02      0.2789635693E-02

    ------------------------------------------------
       NWT REQUIRED            4 OUTER ITERATIONS 
       AND A TOTAL OF          7 INNER ITERATIONS.
    ------------------------------------------------

 NO OUTPUT CONTROL FOR STRESS PERIOD   46   TIME STEP    2
 
 SOLVING FOR HEAD 
                                                   Max.-Head-Change                         Max.-Flux-Residual
  Residual-Control   Outer-Iter.   Inner-Iter.     Column Row Layer    Maximum-Head-Change  Column Row Layer    Maximum-Flux-Residual          L2-NORM 
          0                 1           2             5    8     1       0.6508433843E-01       5    8    1         0.3534717804E+01      0.9440724135E+01
          0                 2           2             5    8     1      -0.6330840854E-02       5    8    1        -0.3534654857E+00      0.9440544378E+00
          0                 3           2             5    8     1       0.4311055921E-03       5    8    1         0.2474253618E-01      0.6608375785E-01
          0                 4           1             5    8     1      -0.1715614013E-04       5    8    1        -0.1012090060E-02      0.2703096287E-02

    ------------------------------------------------
       NWT REQUIRED            4 OUTER ITERATIONS 
       AND A TOTAL OF          7 INNER ITERATIONS.
    ------------------------------------------------

 NO OUTPUT CONTROL FOR STRESS PERIOD   46   TIME STEP    3
 
 SOLVING FOR HEAD 
                                                   Max.-Head-Change                         Max.-Flux-Residual
  Residual-Control   Outer-Iter.   Inner-Iter.     Column Row Layer    Maximum-Head-Change  Column Row Layer    Maximum-Flux-Residual          L2-NORM 
          0                 1           2             5    8     1       0.6231261999E-01       5    8    1         0.3381471832E+01      0.9154479651E+01
          0                 2           2             5    8     1      -0.6061234345E-02       5    8    1        -0.3381413121E+00      0.9154317585E+00
          0                 3           2             5    8     1       0.4127463283E-03       5    8    1         0.2366983954E-01      0.6408014752E-01
          0                 4           1             5    8     1      -0.1642560830E-04       5    8    1        -0.9682167311E-03      0.2621129807E-02

    ------------------------------------------------
       NWT REQUIRED            4 OUTER ITERATIONS 
       AND A TOTAL OF          7 INNER ITERATIONS.
    ------------------------------------------------

 NO OUTPUT CONTROL FOR STRESS PERIOD   46   TIME STEP    4
 
 SOLVING FOR HEAD 
                                                   Max.-Head-Change                         Max.-Flux-Residual
  Residual-Control   Outer-Iter.   Inner-Iter.     Column Row Layer    Maximum-Head-Change  Column Row Layer    Maximum-Flux-Residual          L2-NORM 
          0                 1           2             5    8     1       0.5970689727E-01       5    8    1         0.3237509509E+01      0.8883188959E+01
          0                 2           2             5    8     1      -0.5807774239E-02       5    8    1        -0.3237454720E+00      0.8883042852E+00
          0                 3           2             5    8     1       0.3954865799E-03       5    8    1         0.2266212661E-01      0.6218120707E-01
          0                 4           1             5    8     1      -0.1573882715E-04       5    8    1        -0.9270012340E-03      0.2543464808E-02

    ------------------------------------------------
       NWT REQUIRED            4 OUTER ITERATIONS 
       AND A TOTAL OF          7 INNER ITERATIONS.
    ------------------------------------------------

 NO OUTPUT CONTROL FOR STRESS PERIOD   46   TIME STEP    5
 
 SOLVING FOR HEAD 
                                                   Max.-Head-Change                         Max.-Flux-Residual
  Residual-Control   Outer-Iter.   Inner-Iter.     Column Row Layer    Maximum-Head-Change  Column Row Layer    Maximum-Flux-Residual          L2-NORM 
          0                 1           2             5    7     1       0.5755004451E-01       5    8    1         0.3102161372E+01      0.8625792626E+01
          0                 2           2             5    7     1      -0.5598009202E-02       5    8    1        -0.3102110218E+00      0.8625660874E+00
          0                 3           2             5    7     1       0.3812019551E-03       5    8    1         0.2171471122E-01      0.6037951612E-01
          0                 4           1             5    7     1      -0.1517046349E-04       5    8    1        -0.8882519023E-03      0.2469775487E-02

    ------------------------------------------------
       NWT REQUIRED            4 OUTER ITERATIONS 
       AND A TOTAL OF          7 INNER ITERATIONS.
    ------------------------------------------------

 NO OUTPUT CONTROL FOR STRESS PERIOD   46   TIME STEP    6
 
 SOLVING FOR HEAD 
                                                   Max.-Head-Change                         Max.-Flux-Residual
  Residual-Control   Outer-Iter.   Inner-Iter.     Column Row Layer    Maximum-Head-Change  Column Row Layer    Maximum-Flux-Residual          L2-NORM 
          0                 1           2             5    7     1       0.5628230539E-01       5    7    1         0.2990454854E+01      0.8381318029E+01
          0                 2           2             5    7     1      -0.5474699044E-02       5    7    1        -0.2990431716E+00      0.8381199248E+00
          0                 3           2             5    7     1       0.3728049293E-03       5    7    1         0.2093293487E-01      0.5866827255E-01
          0                 4           1             5    7     1      -0.1483633844E-04       5    7    1        -0.8562773357E-03      0.2399785229E-02

    ------------------------------------------------
       NWT REQUIRED            4 OUTER ITERATIONS 
       AND A TOTAL OF          7 INNER ITERATIONS.
    ------------------------------------------------

 NO OUTPUT CONTROL FOR STRESS PERIOD   46   TIME STEP    7
 
 SOLVING FOR HEAD 
                                                   Max.-Head-Change                         Max.-Flux-Residual
  Residual-Control   Outer-Iter.   Inner-Iter.     Column Row Layer    Maximum-Head-Change  Column Row Layer    Maximum-Flux-Residual          L2-NORM 
          0                 1           2             5    7     1       0.5503916223E-01       5    7    1         0.2924588333E+01      0.8148873402E+01
          0                 2           2             5    7     1      -0.5353780608E-02       5    7    1        -0.2924568907E+00      0.8148766306E+00
          0                 3           2             5    7     1       0.3645707778E-03       5    7    1         0.2047189148E-01      0.5704122822E-01
          0                 4           1             5    7     1      -0.1450869369E-04       5    7    1        -0.8374206323E-03      0.2333240921E-02

    ------------------------------------------------
       NWT REQUIRED            4 OUTER ITERATIONS 
       AND A TOTAL OF          7 INNER ITERATIONS.
    ------------------------------------------------

 NO OUTPUT CONTROL FOR STRESS PERIOD   46   TIME STEP    8
 
 SOLVING FOR HEAD 
                                                   Max.-Head-Change                         Max.-Flux-Residual
  Residual-Control   Outer-Iter.   Inner-Iter.     Column Row Layer    Maximum-Head-Change  Column Row Layer    Maximum-Flux-Residual          L2-NORM 
          0                 1           2             5    7     1       0.5382152856E-01       5    7    1         0.2860011253E+01      0.7927632630E+01
          0                 2           2             5    7     1      -0.5235342857E-02       5    7    1        -0.2859995067E+00      0.7927536035E+00
          0                 3           2             5    7     1       0.3565055595E-03       5    7    1         0.2001987136E-01      0.5549260304E-01
          0                 4           1             5    7     1      -0.1418777171E-04       5    7    1        -0.8189330135E-03      0.2269901763E-02

    ------------------------------------------------
       NWT REQUIRED            4 OUTER ITERATIONS 
       AND A TOTAL OF          7 INNER ITERATIONS.
    ------------------------------------------------

 NO OUTPUT CONTROL FOR STRESS PERIOD   46   TIME STEP    9
 
 SOLVING FOR HEAD 
                                                   Max.-Head-Change                         Max.-Flux-Residual
  Residual-Control   Outer-Iter.   Inner-Iter.     Column Row Layer    Maximum-Head-Change  Column Row Layer    Maximum-Flux-Residual          L2-NORM 
          0                 1           2             4    7     1       0.5293129854E-01       5    7    1         0.2796746807E+01      0.7716838523E+01
          0                 2           2             4    7     1      -0.5148766427E-02       5    7    1        -0.2796733450E+00      0.7716751447E+00
          0                 3           2             4    7     1       0.3506098212E-03       5    7    1         0.1957703717E-01      0.5401710170E-01
          0                 4           1             4    7     1      -0.1395319496E-04       5    7    1        -0.8008210798E-03      0.2209553817E-02

    ------------------------------------------------
       NWT REQUIRED            4 OUTER ITERATIONS 
       AND A TOTAL OF          7 INNER ITERATIONS.
    ------------------------------------------------

 NO OUTPUT CONTROL FOR STRESS PERIOD   46   TIME STEP   10
 
 SOLVING FOR HEAD 
                                                   Max.-Head-Change                         Max.-Flux-Residual
  Residual-Control   Outer-Iter.   Inner-Iter.     Column Row Layer    Maximum-Head-Change  Column Row Layer    Maximum-Flux-Residual          L2-NORM 
          0                 1           2             4    7     1       0.5248346880E-01       4    7    1         0.2750001444E+01      0.7515814020E+01
          0                 2           2             4    7     1      -0.5105209004E-02       4    7    1        -0.2750001050E+00      0.7515735488E+00
          0                 3           2             4    7     1       0.3476436808E-03       4    7    1         0.1924989796E-01      0.5260997885E-01
          0                 4           1             4    7     1      -0.1383516937E-04       4    7    1        -0.7874411151E-03      0.2152002832E-02

    ------------------------------------------------
       NWT REQUIRED            4 OUTER ITERATIONS 
       AND A TOTAL OF          7 INNER ITERATIONS.
    ------------------------------------------------

 NO OUTPUT CONTROL FOR STRESS PERIOD   46   TIME STEP   11
 
 SOLVING FOR HEAD 
                                                   Max.-Head-Change                         Max.-Flux-Residual
  Residual-Control   Outer-Iter.   Inner-Iter.     Column Row Layer    Maximum-Head-Change  Column Row Layer    Maximum-Flux-Residual          L2-NORM 
          0                 1           2             4    7     1       0.5201032958E-01       4    7    1         0.2726729721E+01      0.7323900248E+01
          0                 2           2             4    7     1      -0.5059189188E-02       4    7    1        -0.2726731794E+00      0.7323829412E+00
          0                 3           2             4    7     1       0.3445098657E-03       4    7    1         0.1908701076E-01      0.5126662716E-01
          0                 4           1             4    7     1      -0.1371047236E-04       4    7    1        -0.7807790491E-03      0.2097058662E-02

    ------------------------------------------------
       NWT REQUIRED            4 OUTER ITERATIONS 
       AND A TOTAL OF          7 INNER ITERATIONS.
    ------------------------------------------------

 NO OUTPUT CONTROL FOR STRESS PERIOD   46   TIME STEP   12
 
 SOLVING FOR HEAD 
                                                   Max.-Head-Change                         Max.-Flux-Residual
  Residual-Control   Outer-Iter.   Inner-Iter.     Column Row Layer    Maximum-Head-Change  Column Row Layer    Maximum-Flux-Residual          L2-NORM 
          0                 1           2             4    7     1       0.5151470477E-01       4    7    1         0.2702159895E+01      0.7140531409E+01
          0                 2           2             4    7     1      -0.5010981712E-02       4    7    1        -0.2702164152E+00      0.7140467515E+00
          0                 3           2             4    7     1       0.3412270829E-03       4    7    1         0.1891503512E-01      0.4998308702E-01
          0                 4           1             4    7     1      -0.1357984743E-04       4    7    1        -0.7737452422E-03      0.2044562184E-02

    ------------------------------------------------
       NWT REQUIRED            4 OUTER ITERATIONS 
       AND A TOTAL OF          7 INNER ITERATIONS.
    ------------------------------------------------

 NO OUTPUT CONTROL FOR STRESS PERIOD   46   TIME STEP   13
 
 SOLVING FOR HEAD 
                                                   Max.-Head-Change                         Max.-Flux-Residual
  Residual-Control   Outer-Iter.   Inner-Iter.     Column Row Layer    Maximum-Head-Change  Column Row Layer    Maximum-Flux-Residual          L2-NORM 
          0                 1           2             4    7     1       0.5099871447E-01       4    7    1         0.2676409564E+01      0.6965150274E+01
          0                 2           2             4    7     1      -0.4960792842E-02       4    7    1        -0.2676415748E+00      0.6965092589E+00
          0                 3           2             4    7     1       0.3378093787E-03       4    7    1         0.1873479441E-01      0.4875545422E-01
          0                 4           1             4    7     1      -0.1344385399E-04       4    7    1        -0.7663733952E-03      0.1994352388E-02

    ------------------------------------------------
       NWT REQUIRED            4 OUTER ITERATIONS 
       AND A TOTAL OF          7 INNER ITERATIONS.
    ------------------------------------------------

 NO OUTPUT CONTROL FOR STRESS PERIOD   46   TIME STEP   14
 
 SOLVING FOR HEAD 
                                                   Max.-Head-Change                         Max.-Flux-Residual
  Residual-Control   Outer-Iter.   Inner-Iter.     Column Row Layer    Maximum-Head-Change  Column Row Layer    Maximum-Flux-Residual          L2-NORM 
          0                 1           2             4    7     1       0.5046474034E-01       4    7    1         0.2649610266E+01      0.6797266395E+01
          0                 2           2             4    7     1      -0.4908854284E-02       4    7    1        -0.2649618143E+00      0.6797214323E+00
          0                 3           2             4    7     1       0.3342725301E-03       4    7    1         0.1854720948E-01      0.4758029962E-01
          0                 4           1             4    7     1      -0.1330311948E-04       4    7    1        -0.7587011619E-03      0.1946288557E-02

    ------------------------------------------------
       NWT REQUIRED            4 OUTER ITERATIONS 
       AND A TOTAL OF          7 INNER ITERATIONS.
    ------------------------------------------------

 NO OUTPUT CONTROL FOR STRESS PERIOD   46   TIME STEP   15
 
 SOLVING FOR HEAD 
                                                   Max.-Head-Change                         Max.-Flux-Residual
  Residual-Control   Outer-Iter.   Inner-Iter.     Column Row Layer    Maximum-Head-Change  Column Row Layer    Maximum-Flux-Residual          L2-NORM 
          0                 1           2             4    7     1       0.4991461134E-01       4    7    1         0.2621863868E+01      0.6636407336E+01
          0                 2           2             4    7     1      -0.4855343980E-02       4    7    1        -0.2621873228E+00      0.6636360261E+00
          0                 3           2             4    7     1       0.3306286548E-03       4    7    1         0.1835299357E-01      0.4645431767E-01
          0                 4           1             4    7     1      -0.1315812663E-04       4    7    1        -0.7507577357E-03      0.1900227859E-02

    ------------------------------------------------
       NWT REQUIRED            4 OUTER ITERATIONS 
       AND A TOTAL OF          7 INNER ITERATIONS.
    ------------------------------------------------

 NO OUTPUT CONTROL FOR STRESS PERIOD   46   TIME STEP   16
 
 SOLVING FOR HEAD 
                                                   Max.-Head-Change                         Max.-Flux-Residual
  Residual-Control   Outer-Iter.   Inner-Iter.     Column Row Layer    Maximum-Head-Change  Column Row Layer    Maximum-Flux-Residual          L2-NORM 
          0                 1           2             4    7     1       0.4935056319E-01       4    7    1         0.2593294143E+01      0.6482157282E+01
          0                 2           2             4    7     1      -0.4800479433E-02       4    7    1        -0.2593304793E+00      0.6482114768E+00
          0                 3           2             4    7     1       0.3268925633E-03       4    7    1         0.1815301324E-01      0.4537459083E-01
          0                 4           1             4    7     1      -0.1300946374E-04       4    7    1        -0.7425785197E-03      0.1856075349E-02

    ------------------------------------------------
       NWT REQUIRED            4 OUTER ITERATIONS 
       AND A TOTAL OF          7 INNER ITERATIONS.
    ------------------------------------------------

 NO OUTPUT CONTROL FOR STRESS PERIOD   46   TIME STEP   17
 
 SOLVING FOR HEAD 
                                                   Max.-Head-Change                         Max.-Flux-Residual
  Residual-Control   Outer-Iter.   Inner-Iter.     Column Row Layer    Maximum-Head-Change  Column Row Layer    Maximum-Flux-Residual          L2-NORM 
          0                 1           2             4    7     1       0.4877415359E-01       4    7    1         0.2563988063E+01      0.6334108200E+01
          0                 2           2             4    7     1      -0.4744412194E-02       4    7    1        -0.2563999829E+00      0.6334069756E+00
          0                 3           2             4    7     1       0.3230745755E-03       4    7    1         0.1794787733E-01      0.4433827853E-01
          0                 4           1             4    7     1      -0.1285754274E-04       4    7    1        -0.7341884682E-03      0.1814014964E-02

    ------------------------------------------------
       NWT REQUIRED            4 OUTER ITERATIONS 
       AND A TOTAL OF          7 INNER ITERATIONS.
    ------------------------------------------------

 NO OUTPUT CONTROL FOR STRESS PERIOD   46   TIME STEP   18
 
 SOLVING FOR HEAD 
                                                   Max.-Head-Change                         Max.-Flux-Residual
  Residual-Control   Outer-Iter.   Inner-Iter.     Column Row Layer    Maximum-Head-Change  Column Row Layer    Maximum-Flux-Residual          L2-NORM 
          0                 1           2             4    7     1       0.4818710170E-01       4    7    1         0.2534040924E+01      0.6191909087E+01
          0                 2           2             4    7     1      -0.4687309514E-02       4    7    1        -0.2534053649E+00      0.6191874254E+00
          0                 3           2             4    7     1       0.3191860805E-03       4    7    1         0.1773825308E-01      0.4334289673E-01
          0                 4           1             4    7     1      -0.1270281585E-04       4    7    1        -0.7256148276E-03      0.1772978816E-02

    ------------------------------------------------
       NWT REQUIRED            4 OUTER ITERATIONS 
       AND A TOTAL OF          7 INNER ITERATIONS.
    ------------------------------------------------

 NO OUTPUT CONTROL FOR STRESS PERIOD   46   TIME STEP   19
 
 SOLVING FOR HEAD 
                                                   Max.-Head-Change                         Max.-Flux-Residual
  Residual-Control   Outer-Iter.   Inner-Iter.     Column Row Layer    Maximum-Head-Change  Column Row Layer    Maximum-Flux-Residual          L2-NORM 
          0                 1           2             4    7     1       0.4759113452E-01       4    7    1         0.2503549072E+01      0.6055214709E+01
          0                 2           2             4    7     1      -0.4629339407E-02       4    7    1        -0.2503562615E+00      0.6055183098E+00
          0                 3           2             4    7     1       0.3152385191E-03       4    7    1         0.1752481498E-01      0.4238605384E-01
          0                 4           1             4    7     1      -0.1254573875E-04       4    7    1        -0.7168852030E-03      0.1733845358E-02

    ------------------------------------------------
       NWT REQUIRED            4 OUTER ITERATIONS 
       AND A TOTAL OF          7 INNER ITERATIONS.
    ------------------------------------------------

 NO OUTPUT CONTROL FOR STRESS PERIOD   46   TIME STEP   20
 
 SOLVING FOR HEAD 
                                                   Max.-Head-Change                         Max.-Flux-Residual
  Residual-Control   Outer-Iter.   Inner-Iter.     Column Row Layer    Maximum-Head-Change  Column Row Layer    Maximum-Flux-Residual          L2-NORM 
          0                 1           2             4    7     1       0.4698759311E-01       4    7    1         0.2472587393E+01      0.5923710508E+01
          0                 2           2             4    7     1      -0.4570632341E-02       4    7    1        -0.2472601626E+00      0.5923681796E+00
          0                 3           2             4    7     1       0.3112407749E-03       4    7    1         0.1730808730E-01      0.4146553861E-01
          0                 4           1             4    7     1      -0.1238666475E-04       4    7    1        -0.7080210228E-03      0.1696196555E-02

    ------------------------------------------------
       NWT REQUIRED            4 OUTER ITERATIONS 
       AND A TOTAL OF          7 INNER ITERATIONS.
    ------------------------------------------------

 NO OUTPUT CONTROL FOR STRESS PERIOD   46   TIME STEP   21
 
 SOLVING FOR HEAD 
                                                   Max.-Head-Change                         Max.-Flux-Residual
  Residual-Control   Outer-Iter.   Inner-Iter.     Column Row Layer    Maximum-Head-Change  Column Row Layer    Maximum-Flux-Residual          L2-NORM 
          0                 1           2             4    7     1       0.4637785973E-01       4    7    1         0.2441233104E+01      0.5797104114E+01
          0                 2           2             4    7     1      -0.4511322793E-02       4    7    1        -0.2441247913E+00      0.5797077983E+00
          0                 3           2             4    7     1       0.3072020059E-03       4    7    1         0.1708861067E-01      0.4057930898E-01
          0                 4           1             4    7     1      -0.1222595837E-04       4    7    1        -0.6990444124E-03      0.1659946117E-02

    ------------------------------------------------
       NWT REQUIRED            4 OUTER ITERATIONS 
       AND A TOTAL OF          7 INNER ITERATIONS.
    ------------------------------------------------

 NO OUTPUT CONTROL FOR STRESS PERIOD   46   TIME STEP   22
 
 SOLVING FOR HEAD 
                                                   Max.-Head-Change                         Max.-Flux-Residual
  Residual-Control   Outer-Iter.   Inner-Iter.     Column Row Layer    Maximum-Head-Change  Column Row Layer    Maximum-Flux-Residual          L2-NORM 
          0                 1           2             4    7     1       0.4576320689E-01       4    7    1         0.2409557397E+01      0.5675132075E+01
          0                 2           2             4    7     1      -0.4451534561E-02       4    7    1        -0.2409572678E+00      0.5675108240E+00
          0                 3           2             4    7     1       0.3031306421E-03       4    7    1         0.1686688349E-01      0.3972551830E-01
          0                 4           1             4    7     1      -0.1206395507E-04       4    7    1        -0.6899757691E-03      0.1625028009E-02

    ------------------------------------------------
       NWT REQUIRED            4 OUTER ITERATIONS 
       AND A TOTAL OF          7 INNER ITERATIONS.
    ------------------------------------------------

 NO OUTPUT CONTROL FOR STRESS PERIOD   46   TIME STEP   23
 
 SOLVING FOR HEAD 
                                                   Max.-Head-Change                         Max.-Flux-Residual
  Residual-Control   Outer-Iter.   Inner-Iter.     Column Row Layer    Maximum-Head-Change  Column Row Layer    Maximum-Flux-Residual          L2-NORM 
          0                 1           2             4    7     1       0.4514468884E-01       4    7    1         0.2377619515E+01      0.5557530854E+01
          0                 2           2             4    7     1      -0.4391370210E-02       4    7    1        -0.2377635174E+00      0.5557509048E+00
          0                 3           2             4    7     1       0.2990336669E-03       4    7    1         0.1664332051E-01      0.3890231722E-01
          0                 4           1             4    7     1      -0.1190093266E-04       4    7    1        -0.6808320263E-03      0.1591355931E-02

    ------------------------------------------------
       NWT REQUIRED            4 OUTER ITERATIONS 
       AND A TOTAL OF          7 INNER ITERATIONS.
    ------------------------------------------------

 NO OUTPUT CONTROL FOR STRESS PERIOD   46   TIME STEP   24
 
 SOLVING FOR HEAD 
                                                   Max.-Head-Change                         Max.-Flux-Residual
  Residual-Control   Outer-Iter.   Inner-Iter.     Column Row Layer    Maximum-Head-Change  Column Row Layer    Maximum-Flux-Residual          L2-NORM 
          0                 1           2             4    7     1       0.4452366687E-01       4    7    1         0.2345495279E+01      0.5444082015E+01
          0                 2           2             4    7     1      -0.4330962170E-02       4    7    1        -0.2345511234E+00      0.5444061971E+00
          0                 3           2             4    7     1       0.2949200986E-03       4    7    1         0.1641845254E-01      0.3810818551E-01
          0                 4           1             4    7     1      -0.1173724965E-04       4    7    1        -0.6716349105E-03      0.1558946676E-02

    ------------------------------------------------
       NWT REQUIRED            4 OUTER ITERATIONS 
       AND A TOTAL OF          7 INNER ITERATIONS.
    ------------------------------------------------

 NO OUTPUT CONTROL FOR STRESS PERIOD   46   TIME STEP   25
 
 SOLVING FOR HEAD 
                                                   Max.-Head-Change                         Max.-Flux-Residual
  Residual-Control   Outer-Iter.   Inner-Iter.     Column Row Layer    Maximum-Head-Change  Column Row Layer    Maximum-Flux-Residual          L2-NORM 
          0                 1           2             4    7     1       0.4390088150E-01       4    7    1         0.2313226658E+01      0.5334560526E+01
          0                 2           2             4    7     1      -0.4270382488E-02       4    7    1        -0.2313242834E+00      0.5334542093E+00
          0                 3           2             4    7     1       0.2907948437E-03       4    7    1         0.1619257344E-01      0.3734154465E-01
          0                 4           1             4    7     1      -0.1157310233E-04       4    7    1        -0.6623964646E-03      0.1527519829E-02

    ------------------------------------------------
       NWT REQUIRED            4 OUTER ITERATIONS 
       AND A TOTAL OF          7 INNER ITERATIONS.
    ------------------------------------------------

 NO OUTPUT CONTROL FOR STRESS PERIOD   46   TIME STEP   26
 
 SOLVING FOR HEAD 
                                                   Max.-Head-Change                         Max.-Flux-Residual
  Residual-Control   Outer-Iter.   Inner-Iter.     Column Row Layer    Maximum-Head-Change  Column Row Layer    Maximum-Flux-Residual          L2-NORM 
          0                 1           2             4    7     1       0.4327740600E-01       4    7    1         0.2280873926E+01      0.5228766441E+01
          0                 2           2             4    7     1      -0.4209735575E-02       4    7    1        -0.2280890256E+00      0.5228749370E+00
          0                 3           2             4    7     1       0.2866650115E-03       4    7    1         0.1596610516E-01      0.3660099056E-01
          0                 4           1             4    7     1      -0.1140877253E-04       4    7    1        -0.6531338900E-03      0.1497230971E-02

    ------------------------------------------------
       NWT REQUIRED            4 OUTER ITERATIONS 
       AND A TOTAL OF          7 INNER ITERATIONS.
    ------------------------------------------------

 NO OUTPUT CONTROL FOR STRESS PERIOD   46   TIME STEP   27
 
 SOLVING FOR HEAD 
                                                   Max.-Head-Change                         Max.-Flux-Residual
  Residual-Control   Outer-Iter.   Inner-Iter.     Column Row Layer    Maximum-Head-Change  Column Row Layer    Maximum-Flux-Residual          L2-NORM 
          0                 1           2             4    7     1       0.4265396273E-01       4    7    1         0.2248477824E+01      0.5126507619E+01
          0                 2           2             4    7     1      -0.4149091707E-02       4    7    1        -0.2248494249E+00      0.5126491771E+00
          0                 3           2             4    7     1       0.2825353872E-03       4    7    1         0.1573933292E-01      0.3588517984E-01
          0                 4           1             4    7     1      -0.1124445079E-04       4    7    1        -0.6438588964E-03      0.1468044869E-02

    ------------------------------------------------
       NWT REQUIRED            4 OUTER ITERATIONS 
       AND A TOTAL OF          7 INNER ITERATIONS.
    ------------------------------------------------

 NO OUTPUT CONTROL FOR STRESS PERIOD   46   TIME STEP   28
 
 SOLVING FOR HEAD 
                                                   Max.-Head-Change                         Max.-Flux-Residual
  Residual-Control   Outer-Iter.   Inner-Iter.     Column Row Layer    Maximum-Head-Change  Column Row Layer    Maximum-Flux-Residual          L2-NORM 
          0                 1           2             4    7     1       0.4203161104E-01       4    7    1         0.2216097929E+01      0.5027615711E+01
          0                 2           2             4    7     1      -0.4088553942E-02       4    7    1        -0.2216114397E+00      0.5027600895E+00
          0                 3           2             4    7     1       0.2784129891E-03       4    7    1         0.1551267382E-01      0.3519295018E-01
          0                 4           1             4    7     1      -0.1108041675E-04       4    7    1        -0.6345885188E-03      0.1439645904E-02

    ------------------------------------------------
       NWT REQUIRED            4 OUTER ITERATIONS 
       AND A TOTAL OF          7 INNER ITERATIONS.
    ------------------------------------------------

 NO OUTPUT CONTROL FOR STRESS PERIOD   46   TIME STEP   29
 
 SOLVING FOR HEAD 
                                                   Max.-Head-Change                         Max.-Flux-Residual
  Residual-Control   Outer-Iter.   Inner-Iter.     Column Row Layer    Maximum-Head-Change  Column Row Layer    Maximum-Flux-Residual          L2-NORM 
          0                 1           2             4    7     1       0.4141079622E-01       4    7    1         0.2183759947E+01      0.4931915499E+01
          0                 2           2             4    7     1      -0.4028165603E-02       4    7    1        -0.2183776410E+00      0.4931901543E+00
          0                 3           2             4    7     1       0.2743007669E-03       4    7    1         0.1528630783E-01      0.3452304174E-01
          0                 4           1             4    7     1      -0.1091678739E-04       4    7    1        -0.6253301274E-03      0.1412288453E-02

    ------------------------------------------------
       NWT REQUIRED            4 OUTER ITERATIONS 
       AND A TOTAL OF          7 INNER ITERATIONS.
    ------------------------------------------------

 NO OUTPUT CONTROL FOR STRESS PERIOD   46   TIME STEP   30



 STREAM LISTING     PERIOD     46   STEP       30

 LAYER ROW COL. STREAM  RCH.  FLOW INTO     FLOW TO   FLOW OUT OF   OVRLND.     DIRECT     STREAM       STREAM     STREAM     STREAM   STREAMBED  STREAMBED
                SEG.NO.  NO.  STRM. RCH.    AQUIFER    STRM. RCH.    RUNOFF     PRECIP       ET          HEAD       DEPTH      WIDTH   CONDCTNC.   GRADIENT

   1    1    1     1     1    1.9000E+01  2.1427E-01   1.8786E+01  0.000E+00  0.000E+00  0.000E+00  1.09413E+03  1.082E+00  1.166E+01  5.249E-02  1.361E+00
   1    2    2     1     2    1.8786E+01  3.3054E-01   1.8455E+01  0.000E+00  0.000E+00  0.000E+00  1.08914E+03  1.077E+00  1.158E+01  8.107E-02  1.359E+00
   1    3    3     1     3    1.8455E+01  2.8064E-01   1.8175E+01  0.000E+00  0.000E+00  0.000E+00  1.08349E+03  1.072E+00  1.149E+01  6.892E-02  1.357E+00
   1    3    4     1     4    1.8175E+01  2.5740E-01   1.7917E+01  0.000E+00  0.000E+00  0.000E+00  1.07848E+03  1.068E+00  1.140E+01  6.328E-02  1.356E+00
   1    4    5     2     1    1.5917E+01  3.0542E-01   1.5612E+01  0.000E+00  0.000E+00  0.000E+00  1.07285E+03  9.157E-01  1.200E+01  7.800E-02  1.305E+00
   1    5    6     2     2    1.5612E+01  2.3438E-01   1.5377E+01  0.000E+00  0.000E+00  0.000E+00  1.06742E+03  9.063E-01  1.200E+01  6.000E-02  1.302E+00
   1    6    6     2     3    1.5377E+01  2.3388E-01   1.5143E+01  0.000E+00  0.000E+00  0.000E+00  1.06269E+03  8.980E-01  1.200E+01  6.000E-02  1.299E+00
   1    7    6     2     4    1.5143E+01  2.3338E-01   1.4910E+01  0.000E+00  0.000E+00  0.000E+00  1.05797E+03  8.897E-01  1.200E+01  6.000E-02  1.297E+00
   1    8    6     2     5    1.4910E+01  2.3289E-01   1.4677E+01  0.000E+00  0.000E+00  0.000E+00  1.05324E+03  8.814E-01  1.200E+01  6.000E-02  1.294E+00
   1    3    5     3     1    2.0000E+00  2.8252E-01   1.7175E+00  0.000E+00  0.000E+00  0.000E+00  1.07555E+03  1.909E+00  9.636E+00  7.227E-02  1.955E+00
   1    3    6     3     2    1.7175E+00  2.4905E-01   1.4684E+00  0.000E+00  0.000E+00  0.000E+00  1.07264E+03  1.727E+00  8.909E+00  6.682E-02  1.864E+00
   1    3    7     3     3    1.4684E+00  1.9718E-01   1.2712E+00  0.000E+00  0.000E+00  0.000E+00  1.06987E+03  1.555E+00  8.218E+00  5.547E-02  1.777E+00
   1    4    8     3     4    1.2712E+00  2.2567E-01   1.0456E+00  0.000E+00  0.000E+00  0.000E+00  1.06682E+03  1.364E+00  7.455E+00  6.709E-02  1.682E+00
   1    5    8     3     5    1.0456E+00  1.5790E-01   8.8768E-01  0.000E+00  0.000E+00  0.000E+00  1.06362E+03  1.164E+00  6.655E+00  4.991E-02  1.582E+00
   1    6    8     3     6    8.8768E-01  5.5980E-02   8.3170E-01  0.000E+00  0.000E+00  0.000E+00  1.06158E+03  1.036E+00  6.145E+00  1.844E-02  1.518E+00
   1    5   10     4     1    1.0000E+01  9.0919E-02   9.9091E+00  0.000E+00  0.000E+00  0.000E+00  1.07836E+03  6.368E-01  1.000E+01  2.500E-02  1.212E+00
   1    5    9     4     2    9.9091E+00  1.8158E-01   9.7275E+00  0.000E+00  0.000E+00  0.000E+00  1.07154E+03  6.315E-01  1.000E+01  5.000E-02  1.211E+00
   1    6    8     4     3    9.7275E+00  1.2689E-01   9.6006E+00  0.000E+00  0.000E+00  0.000E+00  1.06381E+03  6.256E-01  1.000E+01  3.500E-02  1.209E+00
   1    6    8     5     1    1.0432E+01  2.2686E-01   1.0205E+01  0.000E+00  0.000E+00  0.000E+00  1.05868E+03  6.790E-01  1.542E+01  6.166E-02  1.226E+00
   1    7    7     5     2    1.0205E+01  2.7894E-01   9.9265E+00  0.000E+00  0.000E+00  0.000E+00  1.05417E+03  6.732E-01  1.519E+01  7.594E-02  1.224E+00
   1    8    7     5     3    9.9265E+00  1.9221E-01   9.7343E+00  0.000E+00  0.000E+00  0.000E+00  1.04992E+03  6.676E-01  1.497E+01  5.241E-02  1.223E+00
   1    8    6     5     4    9.7343E+00  1.3577E-01   9.5985E+00  0.000E+00  0.000E+00  0.000E+00  1.04691E+03  6.637E-01  1.482E+01  3.706E-02  1.221E+00
   1    9    6     6     1    2.4276E+01  2.5176E-01   2.4024E+01  0.000E+00  0.000E+00  0.000E+00  1.04392E+03  1.196E+00  1.200E+01  6.000E-02  1.399E+00
   1   10    7     6     2    2.4024E+01  2.5131E-01   2.3773E+01  0.000E+00  0.000E+00  0.000E+00  1.03937E+03  1.188E+00  1.200E+01  6.000E-02  1.396E+00
   1   11    7     6     3    2.3773E+01  2.5086E-01   2.3522E+01  0.000E+00  0.000E+00  0.000E+00  1.03482E+03  1.181E+00  1.200E+01  6.000E-02  1.394E+00
   1   12    7     6     4    2.3522E+01  2.5041E-01   2.3271E+01  0.000E+00  0.000E+00  0.000E+00  1.03026E+03  1.173E+00  1.200E+01  6.000E-02  1.391E+00
   1   13    7     6     5    2.3271E+01  1.1654E-02   2.3260E+01  0.000E+00  0.000E+00  0.000E+00  1.02708E+03  1.169E+00  1.200E+01  2.400E-02  1.619E-01
   1   14    9     7     1    1.5000E+02  1.3770E+00   1.4862E+02  0.000E+00  0.000E+00  0.000E+00  1.03987E+03  2.288E+00  5.529E+01  5.593E-01  8.206E-01
   1   13    8     7     2    1.4862E+02  1.9847E+00   1.4664E+02  0.000E+00  0.000E+00  0.000E+00  1.03478E+03  2.279E+00  5.525E+01  6.147E-01  1.076E+00
   1   13    7     7     3    1.4664E+02  1.7282E+00   1.4491E+02  0.000E+00  0.000E+00  0.000E+00  1.02969E+03  2.269E+00  5.521E+01  5.584E-01  1.032E+00
   1   13    6     8     1    1.6817E+02  1.1581E+00   1.6701E+02  0.000E+00  0.000E+00  0.000E+00  1.02481E+03  2.936E+00  4.258E+01  4.339E-01  8.897E-01
   1   13    5     8     2    1.6701E+02  3.9163E-01   1.6662E+02  0.000E+00  0.000E+00  0.000E+00  1.01856E+03  2.931E+00  4.250E+01  4.331E-01  3.014E-01
   1   13    4     8     3    1.6662E+02 -1.7166E+00   1.6834E+02  0.000E+00  0.000E+00  0.000E+00  1.01231E+03  2.936E+00  4.257E+01  4.338E+00 -1.319E-01
   1   13    3     8     4    1.6834E+02 -3.2954E+00   1.7163E+02  0.000E+00  0.000E+00  0.000E+00  1.00608E+03  2.952E+00  4.281E+01  4.362E+00 -2.518E-01
   1   13    2     8     5    1.7163E+02 -2.4862E+00   1.7412E+02  0.000E+00  0.000E+00  0.000E+00  9.99846E+02  2.971E+00  4.308E+01  4.390E+00 -1.888E-01
   1   13    1     8     6    1.7412E+02 -1.9578E+00   1.7608E+02  0.000E+00  0.000E+00  0.000E+00  9.94860E+02  2.985E+00  4.328E+01  2.646E+00 -2.466E-01





UNSATURATED ZONE PACKAGE VOLUMETRIC BUDGET FOR  TIME STEP    30 STRESS PERIOD   46
  ------------------------------------------------------------------------------



     CUMULATIVE VOLUMES      L**3       RATES FOR THIS TIME STEP      L**3/T
     ------------------                 ------------------------

           IN:                                      IN:
           ---                                      ---
        INFILTRATION =  2113130040.3716          INFILTRATION =          15.3463

          OUT:                                     OUT:
          ----                                     ----
              UZF ET =  1987360956.9418                UZF ET =          15.3575
        UZF RECHARGE =     1377838.9196          UZF RECHARGE =           0.0001

            IN - OUT =   124391244.5102              IN - OUT =      -1.1234E-02

          STORAGE:                                 STORAGE:
          --------                                 --------
      STORAGE CHANGE =   124392162.6561        STORAGE CHANGE =      -1.1235E-02

 PERCENT DISCREPANCY IS DIFFERENCE BETWEEN IN-OUT MINUS CHANGE IN STORAGE
 DIVIDED BY THE AVERAGE OF IN AND OUT TIMES 100

 PERCENT DISCREPANCY =          -0.00     PERCENT DISCREPANCY =           0.00






1
  VOLUMETRIC BUDGET FOR AGRICULTURAL FIELDS AT TIME STEP   30, STRESS PERIOD  46
  ------------------------------------------------------------------------------

     CUMULATIVE VOLUMES      L**3       RATES FOR THIS TIME STEP      L**3/T
     ------------------                 ------------------------

           IN:                                      IN:
           ---                                      ---
               AG WELLS  =  1591428992.0000                 AG WELLS  =          10.9388
      DIVERSION SEGMENTS =           0.0000        DIVERSION SEGMENTS =           0.0000
           GW IRRIGATION =           0.0000             GW IRRIGATION =           0.0000
           SW IRRIGATION =           0.0000             SW IRRIGATION =           0.0000
        SYSTEM LOSSES GW =           0.0000          SYSTEM LOSSES GW =           0.0000
        SYSTEM LOSSES SW =           0.0000          SYSTEM LOSSES SW =           0.0000

                TOTAL IN =  1591428992.0000                  TOTAL IN =          10.9388

          OUT:                                     OUT:
          ----                                     ----
               AG WELLS  =           0.0000                 AG WELLS  =           0.0000
      DIVERSION SEGMENTS =           0.0000        DIVERSION SEGMENTS =           0.0000
           GW IRRIGATION =  1591428992.0000             GW IRRIGATION =          10.9388
           SW IRRIGATION =           0.0000             SW IRRIGATION =           0.0000
        SYSTEM LOSSES GW =           0.0000          SYSTEM LOSSES GW =           0.0000
        SYSTEM LOSSES SW =           0.0000          SYSTEM LOSSES SW =           0.0000

               TOTAL OUT =  1591428992.0000                 TOTAL OUT =          10.9388

                IN - OUT =           0.0000                  IN - OUT =           0.0000

     PERCENT DISCREPANCY =           0.00         PERCENT DISCREPANCY =           0.00



1
  VOLUMETRIC BUDGET FOR ENTIRE MODEL AT END OF TIME STEP   30, STRESS PERIOD  46
  ------------------------------------------------------------------------------

     CUMULATIVE VOLUMES      L**3       RATES FOR THIS TIME STEP      L**3/T
     ------------------                 ------------------------

           IN:                                      IN:
           ---                                      ---
             STORAGE     =  2086157312.0000               STORAGE     =          17.9734
       CONSTANT HEAD     =           0.0000         CONSTANT HEAD     =           0.0000
     HEAD DEP BOUNDS     =    33902920.0000       HEAD DEP BOUNDS     =           0.2886
      STREAM LEAKAGE     =  1450646528.0000        STREAM LEAKAGE     =          12.3798
        UZF RECHARGE     =     1377837.8750          UZF RECHARGE     =       8.2316E-05
               GW ET     =           0.0000                 GW ET     =           0.0000
     SURFACE LEAKAGE     =           0.0000       SURFACE LEAKAGE     =           0.0000
           AG WELLS      =           0.0000             AG WELLS      =           0.0000

                TOTAL IN =  3572084736.0000                  TOTAL IN =          30.6419

          OUT:                                     OUT:
          ----                                     ----
             STORAGE     =   728812288.0000               STORAGE     =           9.9582
       CONSTANT HEAD     =           0.0000         CONSTANT HEAD     =           0.0000
     HEAD DEP BOUNDS     =    34551932.0000       HEAD DEP BOUNDS     =           0.2888
      STREAM LEAKAGE     =  1199950336.0000        STREAM LEAKAGE     =           9.4560
        UZF RECHARGE     =           0.0000          UZF RECHARGE     =           0.0000
               GW ET     =    17343536.0000                 GW ET     =           0.0000
     SURFACE LEAKAGE     =           0.0000       SURFACE LEAKAGE     =           0.0000
           AG WELLS      =  1591428992.0000             AG WELLS      =          10.9388

               TOTAL OUT =  3572087040.0000                 TOTAL OUT =          30.6419

                IN - OUT =       -2304.0000                  IN - OUT =      -2.4796E-05

     PERCENT DISCREPANCY =          -0.00         PERCENT DISCREPANCY =          -0.00






         TIME SUMMARY AT END OF TIME STEP   30 IN STRESS PERIOD   46
                    SECONDS     MINUTES      HOURS       DAYS        YEARS
                    -----------------------------------------------------------
   TIME STEP LENGTH  87667.      1461.1      24.352      1.0147     2.77799E-03
 STRESS PERIOD TIME 2.63000E+06  43833.      730.56      30.440     8.33397E-02
         TOTAL TIME 1.18435E+08 1.97392E+06  32899.      1370.8      3.7530    
1
1
                            STRESS PERIOD NO.   47, LENGTH =   2630000.    
                            -----------------------------------------------

                              NUMBER OF TIME STEPS =    30

                               MULTIPLIER FOR DELT =     1.000

                            INITIAL TIME STEP SIZE =   87666.66    

 REUSING NON-PARAMETER GHB CELLS FROM LAST STRESS PERIOD

      2 GHB CELLS

 REUSING STREAM SEGMENT DATA FROM LAST STRESS PERIOD



            AREAL INFILTRATION RATE
 READING ON UNIT   19 WITH FORMAT: (10F4.0)            

            1           2           3           4           5           6           7           8           9          10
 ........................................................................................................................
   1   1.2000E-09   0.000       0.000       0.000       0.000       0.000       0.000       0.000       0.000       0.000    
   2   2.1000E-09  2.0000E-09  8.0000E-10  8.5000E-09   0.000       0.000       0.000       0.000       0.000       0.000    
   3   5.0000E-10  1.1000E-09  8.8000E-09  5.5000E-09   0.000       0.000       0.000       0.000       0.000       0.000    
   4   8.5000E-09  1.1000E-09  1.1000E-09  1.1000E-09  2.0000E-09   0.000       0.000       0.000       0.000       0.000    
   5   8.5000E-09  1.1000E-09  1.1000E-09  1.1000E-09  1.1000E-09   0.000       0.000       0.000       0.000       0.000    
   6   8.5000E-09  5.2000E-09  2.1000E-09  1.1000E-09  1.5000E-09   0.000       0.000       0.000       0.000       0.000    
   7   8.5000E-09  5.2000E-09  2.1000E-09  1.2000E-09  2.0000E-09   0.000       0.000       0.000       0.000       0.000    
   8   5.0000E-10  5.2000E-09  2.1000E-09  1.2000E-09  5.0000E-09   0.000       0.000       0.000       0.000       0.000    
   9   5.0000E-10  5.2000E-09  2.1000E-09  1.2000E-09  5.0000E-09   0.000       0.000       0.000       0.000       0.000    
  10   5.0000E-10  5.2000E-09  2.1000E-09  1.2000E-09  5.8000E-09   0.000       0.000       0.000       0.000       0.000    
  11   1.0000E-10  1.1000E-09  1.1000E-09  1.2000E-09  5.0000E-09   0.000       0.000       0.000       0.000       0.000    
  12   1.1000E-09  1.1000E-09  1.1000E-09  1.1000E-09  2.0000E-09   0.000       0.000       0.000       0.000       0.000    
  13   1.1000E-09  2.2000E-09  2.2000E-09  2.1000E-09  1.0000E-09   0.000       0.000       0.000       0.000       0.000    
  14   2.0000E-10  5.5000E-09  5.5000E-09  5.2000E-09  1.0000E-09   0.000       0.000       0.000       0.000       0.000    
  15    0.000      8.8000E-09  8.8000E-09   0.000       0.000       0.000       0.000       0.000       0.000       0.000    

                  ET RATE =  5.000000E-09

 USING ET EXTINCTION DEPTH FROM PREVIOUS STRESS PERIOD. CURRENT PERIOD IS:      47

 USING EXTINCTION WATER CONTENT FROM PREVIOUS STRESS PERIOD. CURRENT PERIOD IS:      47

 USING AIR ENTRY PRESSURE FROM PREVIOUS STRESS PERIOD. CURRENT PERIOD IS:      47

 USING ROOT PRESSURE HEAD FROM PREVIOUS STRESS PERIOD. CURRENT PERIOD IS:      47

 USING ROOT ACTIVITY FROM PREVIOUS STRESS PERIOD. CURRENT PERIOD IS:      47

 PROCESSING AG STRESS PERIOD DATA

 READING AG STRESS PERIOD DATA

 READING IRRIGATION WELL

 END PROCESSING AG STRESS PERIOD DATA OPTIONS
 
 SOLVING FOR HEAD 
                                                   Max.-Head-Change                         Max.-Flux-Residual
  Residual-Control   Outer-Iter.   Inner-Iter.     Column Row Layer    Maximum-Head-Change  Column Row Layer    Maximum-Flux-Residual          L2-NORM 
          0                 1           2             4    7     1       0.7609350903E-01       4    7    1         0.3994472483E+01      0.8926825066E+01
          0                 2           2             4    7     1      -0.7401887473E-02       4    7    1        -0.3994516086E+00      0.8926825265E+00
          0                 3           2             4    7     1       0.5040404705E-03       4    7    1         0.2796158344E-01      0.6248778653E-01
          0                 4           1             4    7     1      -0.2005624445E-04       4    7    1        -0.1143630529E-02      0.2555755957E-02

    ------------------------------------------------
       NWT REQUIRED            4 OUTER ITERATIONS 
       AND A TOTAL OF          7 INNER ITERATIONS.
    ------------------------------------------------

 NO OUTPUT CONTROL FOR STRESS PERIOD   47   TIME STEP    1
 
 SOLVING FOR HEAD 
                                                   Max.-Head-Change                         Max.-Flux-Residual
  Residual-Control   Outer-Iter.   Inner-Iter.     Column Row Layer    Maximum-Head-Change  Column Row Layer    Maximum-Flux-Residual          L2-NORM 
          0                 1           2             4    7     1       0.7529419062E-01       4    7    1         0.3953577572E+01      0.8753835361E+01
          0                 2           2             4    7     1      -0.7324137618E-02       4    7    1        -0.3953622525E+00      0.8753838487E+00
          0                 3           2             4    7     1       0.4987459738E-03       4    7    1         0.2767532709E-01      0.6127690889E-01
          0                 4           1             4    7     1      -0.1984557199E-04       4    7    1        -0.1131922661E-02      0.2506232918E-02

    ------------------------------------------------
       NWT REQUIRED            4 OUTER ITERATIONS 
       AND A TOTAL OF          7 INNER ITERATIONS.
    ------------------------------------------------

 NO OUTPUT CONTROL FOR STRESS PERIOD   47   TIME STEP    2
 
 SOLVING FOR HEAD 
                                                   Max.-Head-Change                         Max.-Flux-Residual
  Residual-Control   Outer-Iter.   Inner-Iter.     Column Row Layer    Maximum-Head-Change  Column Row Layer    Maximum-Flux-Residual          L2-NORM 
          0                 1           2             4    7     1       0.7448435180E-01       4    7    1         0.3912040861E+01      0.8587347141E+01
          0                 2           2             4    7     1      -0.7245364054E-02       4    7    1        -0.3912086925E+00      0.8587352152E+00
          0                 3           2             4    7     1       0.4933817699E-03       4    7    1         0.2738457672E-01      0.6011149671E-01
          0                 4           1             4    7     1      -0.1963212519E-04       4    7    1        -0.1120030961E-02      0.2458567287E-02

    ------------------------------------------------
       NWT REQUIRED            4 OUTER ITERATIONS 
       AND A TOTAL OF          7 INNER ITERATIONS.
    ------------------------------------------------

 NO OUTPUT CONTROL FOR STRESS PERIOD   47   TIME STEP    3
 
 SOLVING FOR HEAD 
                                                   Max.-Head-Change                         Max.-Flux-Residual
  Residual-Control   Outer-Iter.   Inner-Iter.     Column Row Layer    Maximum-Head-Change  Column Row Layer    Maximum-Flux-Residual          L2-NORM 
          0                 1           2             4    7     1       0.7366598785E-01       4    7    1         0.3869973089E+01      0.8426977102E+01
          0                 2           2             4    7     1      -0.7165760902E-02       4    7    1        -0.3870020047E+00      0.8426983383E+00
          0                 3           2             4    7     1       0.4879610770E-03       4    7    1         0.2709010760E-01      0.5898890495E-01
          0                 4           1             4    7     1      -0.1941643098E-04       4    7    1        -0.1107987155E-02      0.2412651478E-02

    ------------------------------------------------
       NWT REQUIRED            4 OUTER ITERATIONS 
       AND A TOTAL OF          7 INNER ITERATIONS.
    ------------------------------------------------

 NO OUTPUT CONTROL FOR STRESS PERIOD   47   TIME STEP    4
 
 SOLVING FOR HEAD 
                                                   Max.-Head-Change                         Max.-Flux-Residual
  Residual-Control   Outer-Iter.   Inner-Iter.     Column Row Layer    Maximum-Head-Change  Column Row Layer    Maximum-Flux-Residual          L2-NORM 
          0                 1           2             4    7     1       0.7284044562E-01       4    7    1         0.3827448829E+01      0.8272370411E+01
          0                 2           2             4    7     1      -0.7085459204E-02       4    7    1        -0.3827496481E+00      0.8272377549E+00
          0                 3           2             4    7     1       0.4824928190E-03       4    7    1         0.2679244186E-01      0.5790665482E-01
          0                 4           1             4    7     1      -0.1919884361E-04       4    7    1        -0.1095812601E-02      0.2368385565E-02

    ------------------------------------------------
       NWT REQUIRED            4 OUTER ITERATIONS 
       AND A TOTAL OF          7 INNER ITERATIONS.
    ------------------------------------------------

 NO OUTPUT CONTROL FOR STRESS PERIOD   47   TIME STEP    5
 
 SOLVING FOR HEAD 
                                                   Max.-Head-Change                         Max.-Flux-Residual
  Residual-Control   Outer-Iter.   Inner-Iter.     Column Row Layer    Maximum-Head-Change  Column Row Layer    Maximum-Flux-Residual          L2-NORM 
          0                 1           2             4    7     1       0.7200936598E-01       4    7    1         0.3784559574E+01      0.8123187982E+01
          0                 2           2             4    7     1      -0.7004618601E-02       4    7    1        -0.3784607743E+00      0.8123195705E+00
          0                 3           2             4    7     1       0.4769878660E-03       4    7    1         0.2649222008E-01      0.5686237460E-01
          0                 4           1             4    7     1      -0.1897979655E-04       4    7    1        -0.1083533516E-02      0.2325674231E-02

    ------------------------------------------------
       NWT REQUIRED            4 OUTER ITERATIONS 
       AND A TOTAL OF          7 INNER ITERATIONS.
    ------------------------------------------------

 NO OUTPUT CONTROL FOR STRESS PERIOD   47   TIME STEP    6
 
 SOLVING FOR HEAD 
                                                   Max.-Head-Change                         Max.-Flux-Residual
  Residual-Control   Outer-Iter.   Inner-Iter.     Column Row Layer    Maximum-Head-Change  Column Row Layer    Maximum-Flux-Residual          L2-NORM 
          0                 1           2             4    7     1       0.7117401685E-01       4    7    1         0.3741375956E+01      0.7979129956E+01
          0                 2           2             4    7     1      -0.6923362452E-02       4    7    1        -0.3741424480E+00      0.7979138303E+00
          0                 3           2             4    7     1       0.4714546179E-03       4    7    1         0.2618993677E-01      0.5585396842E-01
          0                 4           1             4    7     1      -0.1875962342E-04       4    7    1        -0.1071170109E-02      0.2284433327E-02

    ------------------------------------------------
       NWT REQUIRED            4 OUTER ITERATIONS 
       AND A TOTAL OF          7 INNER ITERATIONS.
    ------------------------------------------------

 NO OUTPUT CONTROL FOR STRESS PERIOD   47   TIME STEP    7
 
 SOLVING FOR HEAD 
                                                   Max.-Head-Change                         Max.-Flux-Residual
  Residual-Control   Outer-Iter.   Inner-Iter.     Column Row Layer    Maximum-Head-Change  Column Row Layer    Maximum-Flux-Residual          L2-NORM 
          0                 1           2             4    7     1       0.7033583373E-01       4    7    1         0.3697978163E+01      0.7839905062E+01
          0                 2           2             4    7     1      -0.6841830417E-02       4    7    1        -0.3698026897E+00      0.7839914274E+00
          0                 3           2             4    7     1       0.4659025857E-03       4    7    1         0.2588615335E-01      0.5487939714E-01
          0                 4           1             4    7     1      -0.1853870299E-04       4    7    1        -0.1058745370E-02      0.2244570586E-02

    ------------------------------------------------
       NWT REQUIRED            4 OUTER ITERATIONS 
       AND A TOTAL OF          7 INNER ITERATIONS.
    ------------------------------------------------

 NO OUTPUT CONTROL FOR STRESS PERIOD   47   TIME STEP    8
 
 SOLVING FOR HEAD 
                                                   Max.-Head-Change                         Max.-Flux-Residual
  Residual-Control   Outer-Iter.   Inner-Iter.     Column Row Layer    Maximum-Head-Change  Column Row Layer    Maximum-Flux-Residual          L2-NORM 
          0                 1           2             4    7     1       0.6949601901E-01       4    7    1         0.3654433400E+01      0.7705261939E+01
          0                 2           2             4    7     1      -0.6760139478E-02       4    7    1        -0.3654482214E+00      0.7705272594E+00
          0                 3           2             4    7     1       0.4603397340E-03       4    7    1         0.2558134037E-01      0.5393690593E-01
          0                 4           1             4    7     1      -0.1831735164E-04       4    7    1        -0.1046278480E-02      0.2206021500E-02

    ------------------------------------------------
       NWT REQUIRED            4 OUTER ITERATIONS 
       AND A TOTAL OF          7 INNER ITERATIONS.
    ------------------------------------------------

 NO OUTPUT CONTROL FOR STRESS PERIOD   47   TIME STEP    9
 
 SOLVING FOR HEAD 
                                                   Max.-Head-Change                         Max.-Flux-Residual
  Residual-Control   Outer-Iter.   Inner-Iter.     Column Row Layer    Maximum-Head-Change  Column Row Layer    Maximum-Flux-Residual          L2-NORM 
          0                 1           2             4    7     1       0.6865555895E-01       4    7    1         0.3610796781E+01      0.7574953511E+01
          0                 2           2             4    7     1      -0.6678385591E-02       4    7    1        -0.3610845559E+00      0.7574966483E+00
          0                 3           2             4    7     1       0.4547725980E-03       4    7    1         0.2527588369E-01      0.5302476393E-01
          0                 4           1             4    7     1      -0.1809583037E-04       4    7    1        -0.1033785292E-02      0.2168716430E-02

    ------------------------------------------------
       NWT REQUIRED            4 OUTER ITERATIONS 
       AND A TOTAL OF          7 INNER ITERATIONS.
    ------------------------------------------------

 NO OUTPUT CONTROL FOR STRESS PERIOD   47   TIME STEP   10
 
 SOLVING FOR HEAD 
                                                   Max.-Head-Change                         Max.-Flux-Residual
  Residual-Control   Outer-Iter.   Inner-Iter.     Column Row Layer    Maximum-Head-Change  Column Row Layer    Maximum-Flux-Residual          L2-NORM 
          0                 1           2             4    7     1       0.6781562275E-01       4    7    1         0.3567133898E+01      0.7448760169E+01
          0                 2           2             4    7     1      -0.6596682507E-02       4    7    1        -0.3567182535E+00      0.7448776608E+00
          0                 3           2             4    7     1       0.4492089226E-03       4    7    1         0.2497024250E-01      0.5214143171E-01
          0                 4           1             4    7     1      -0.1787444655E-04       4    7    1        -0.1021284556E-02      0.2132588643E-02

    ------------------------------------------------
       NWT REQUIRED            4 OUTER ITERATIONS 
       AND A TOTAL OF          7 INNER ITERATIONS.
    ------------------------------------------------

 NO OUTPUT CONTROL FOR STRESS PERIOD   47   TIME STEP   11
 
 SOLVING FOR HEAD 
                                                   Max.-Head-Change                         Max.-Flux-Residual
  Residual-Control   Outer-Iter.   Inner-Iter.     Column Row Layer    Maximum-Head-Change  Column Row Layer    Maximum-Flux-Residual          L2-NORM 
          0                 1           2             4    7     1       0.6697702868E-01       4    7    1         0.3523490915E+01      0.7326468745E+01
          0                 2           2             4    7     1      -0.6515109838E-02       4    7    1        -0.3523539319E+00      0.7326490551E+00
          0                 3           2             4    7     1       0.4436541293E-03       4    7    1         0.2466474007E-01      0.5128542754E-01
          0                 4           1             4    7     1      -0.1765341618E-04       4    7    1        -0.1008789484E-02      0.2097578847E-02

    ------------------------------------------------
       NWT REQUIRED            4 OUTER ITERATIONS 
       AND A TOTAL OF          7 INNER ITERATIONS.
    ------------------------------------------------

 NO OUTPUT CONTROL FOR STRESS PERIOD   47   TIME STEP   12
 
 SOLVING FOR HEAD 
                                                   Max.-Head-Change                         Max.-Flux-Residual
  Residual-Control   Outer-Iter.   Inner-Iter.     Column Row Layer    Maximum-Head-Change  Column Row Layer    Maximum-Flux-Residual          L2-NORM 
          0                 1           2             4    7     1       0.6614065549E-01       4    7    1         0.3479917488E+01      0.7207883363E+01
          0                 2           2             4    7     1      -0.6433753075E-02       4    7    1        -0.3479965575E+00      0.7207905475E+00
          0                 3           2             4    7     1       0.4381140397E-03       4    7    1         0.2435972403E-01      0.5045532491E-01
          0                 4           1             4    7     1      -0.1743297077E-04       4    7    1        -0.9963143098E-03      0.2063623653E-02

    ------------------------------------------------
       NWT REQUIRED            4 OUTER ITERATIONS 
       AND A TOTAL OF          7 INNER ITERATIONS.
    ------------------------------------------------

 NO OUTPUT CONTROL FOR STRESS PERIOD   47   TIME STEP   13
 
 SOLVING FOR HEAD 
                                                   Max.-Head-Change                         Max.-Flux-Residual
  Residual-Control   Outer-Iter.   Inner-Iter.     Column Row Layer    Maximum-Head-Change  Column Row Layer    Maximum-Flux-Residual          L2-NORM 
          0                 1           2             4    7     1       0.6530757881E-01       4    7    1         0.3436473641E+01      0.7092834796E+01
          0                 2           2             4    7     1      -0.6352716866E-02       4    7    1        -0.3436521339E+00      0.7092857013E+00
          0                 3           2             4    7     1       0.4325957800E-03       4    7    1         0.2405561462E-01      0.4964998426E-01
          0                 4           1             4    7     1      -0.1721339389E-04       4    7    1        -0.9838762110E-03      0.2030686922E-02

    ------------------------------------------------
       NWT REQUIRED            4 OUTER ITERATIONS 
       AND A TOTAL OF          7 INNER ITERATIONS.
    ------------------------------------------------

 NO OUTPUT CONTROL FOR STRESS PERIOD   47   TIME STEP   14
 
 SOLVING FOR HEAD 
                                                   Max.-Head-Change                         Max.-Flux-Residual
  Residual-Control   Outer-Iter.   Inner-Iter.     Column Row Layer    Maximum-Head-Change  Column Row Layer    Maximum-Flux-Residual          L2-NORM 
          0                 1           2             4    7     1       0.6447813165E-01       4    7    1         0.3393178986E+01      0.6981145222E+01
          0                 2           2             4    7     1      -0.6272033614E-02       4    7    1        -0.3393226231E+00      0.6981167518E+00
          0                 3           2             4    7     1       0.4271015562E-03       4    7    1         0.2375254917E-01      0.4886815925E-01
          0                 4           1             4    7     1      -0.1699477348E-04       4    7    1        -0.9714808136E-03      0.1998711105E-02

    ------------------------------------------------
       NWT REQUIRED            4 OUTER ITERATIONS 
       AND A TOTAL OF          7 INNER ITERATIONS.
    ------------------------------------------------

 NO OUTPUT CONTROL FOR STRESS PERIOD   47   TIME STEP   15
 
 SOLVING FOR HEAD 
                                                   Max.-Head-Change                         Max.-Flux-Residual
  Residual-Control   Outer-Iter.   Inner-Iter.     Column Row Layer    Maximum-Head-Change  Column Row Layer    Maximum-Flux-Residual          L2-NORM 
          0                 1           2             4    7     1       0.6365339312E-01       4    7    1         0.3350094185E+01      0.6872661137E+01
          0                 2           2             4    7     1      -0.6191808299E-02       4    7    1        -0.3350140920E+00      0.6872683408E+00
          0                 3           2             4    7     1       0.4216385172E-03       4    7    1         0.2345095235E-01      0.4810876974E-01
          0                 4           1             4    7     1      -0.1677739415E-04       4    7    1        -0.9591454977E-03      0.1967652805E-02

    ------------------------------------------------
       NWT REQUIRED            4 OUTER ITERATIONS 
       AND A TOTAL OF          7 INNER ITERATIONS.
    ------------------------------------------------

 NO OUTPUT CONTROL FOR STRESS PERIOD   47   TIME STEP   16
 
 SOLVING FOR HEAD 
                                                   Max.-Head-Change                         Max.-Flux-Residual
  Residual-Control   Outer-Iter.   Inner-Iter.     Column Row Layer    Maximum-Head-Change  Column Row Layer    Maximum-Flux-Residual          L2-NORM 
          0                 1           2             4    7     1       0.6283370267E-01       4    7    1         0.3307239022E+01      0.6767230633E+01
          0                 2           2             4    7     1      -0.6112073953E-02       4    7    1        -0.3307285199E+00      0.6767253067E+00
          0                 3           2             4    7     1       0.4162089120E-03       4    7    1         0.2315096271E-01      0.4737075554E-01
          0                 4           1             4    7     1      -0.1656134547E-04       4    7    1        -0.9468759145E-03      0.1937467603E-02

    ------------------------------------------------
       NWT REQUIRED            4 OUTER ITERATIONS 
       AND A TOTAL OF          7 INNER ITERATIONS.
    ------------------------------------------------

 NO OUTPUT CONTROL FOR STRESS PERIOD   47   TIME STEP   17
 
 SOLVING FOR HEAD 
                                                   Max.-Head-Change                         Max.-Flux-Residual
  Residual-Control   Outer-Iter.   Inner-Iter.     Column Row Layer    Maximum-Head-Change  Column Row Layer    Maximum-Flux-Residual          L2-NORM 
          0                 1           2             4    7     1       0.6201976176E-01       4    7    1         0.3264652801E+01      0.6664732536E+01
          0                 2           2             4    7     1      -0.6032898817E-02       4    7    1        -0.3264698376E+00      0.6664755177E+00
          0                 3           2             4    7     1       0.4108173872E-03       4    7    1         0.2285285538E-01      0.4665326768E-01
          0                 4           1             4    7     1      -0.1634681140E-04       4    7    1        -0.9346832978E-03      0.1908121252E-02

    ------------------------------------------------
       NWT REQUIRED            4 OUTER ITERATIONS 
       AND A TOTAL OF          7 INNER ITERATIONS.
    ------------------------------------------------

 NO OUTPUT CONTROL FOR STRESS PERIOD   47   TIME STEP   18
 
 SOLVING FOR HEAD 
                                                   Max.-Head-Change                         Max.-Flux-Residual
  Residual-Control   Outer-Iter.   Inner-Iter.     Column Row Layer    Maximum-Head-Change  Column Row Layer    Maximum-Flux-Residual          L2-NORM 
          0                 1           2             4    7     1       0.6121193715E-01       4    7    1         0.3222357420E+01      0.6565021998E+01
          0                 2           2             4    7     1      -0.5954318575E-02       4    7    1        -0.3222402357E+00      0.6565044968E+00
          0                 3           2             4    7     1       0.4054663729E-03       4    7    1         0.2255678372E-01      0.4595529342E-01
          0                 4           1             4    7     1      -0.1613388947E-04       4    7    1        -0.9225739391E-03      0.1879572731E-02

    ------------------------------------------------
       NWT REQUIRED            4 OUTER ITERATIONS 
       AND A TOTAL OF          7 INNER ITERATIONS.
    ------------------------------------------------

 NO OUTPUT CONTROL FOR STRESS PERIOD   47   TIME STEP   19
 
 SOLVING FOR HEAD 
                                                   Max.-Head-Change                         Max.-Flux-Residual
  Residual-Control   Outer-Iter.   Inner-Iter.     Column Row Layer    Maximum-Head-Change  Column Row Layer    Maximum-Flux-Residual          L2-NORM 
          0                 1           2             4    7     1       0.6041095715E-01       4    7    1         0.3180393607E+01      0.6467987120E+01
          0                 2           2             4    7     1      -0.5882684516E-02       4    7    1        -0.3185067908E+00      0.6468449445E+00
          0                 3           2             4    7     1       0.4005883269E-03       4    7    1         0.2229544021E-01      0.4527911575E-01
          0                 4           1             4    7     1      -0.1593978756E-04       4    7    1        -0.9118849944E-03      0.1851918414E-02

    ------------------------------------------------
       NWT REQUIRED            4 OUTER ITERATIONS 
       AND A TOTAL OF          7 INNER ITERATIONS.
    ------------------------------------------------

 NO OUTPUT CONTROL FOR STRESS PERIOD   47   TIME STEP   20
 
 SOLVING FOR HEAD 
                                                   Max.-Head-Change                         Max.-Flux-Residual
  Residual-Control   Outer-Iter.   Inner-Iter.     Column Row Layer    Maximum-Head-Change  Column Row Layer    Maximum-Flux-Residual          L2-NORM 
          0                 1           2             4    7     1       0.5959190513E-01       4    7    1         0.3138442648E+01      0.6373485539E+01
          0                 2           2             4    7     1      -0.5796735265E-02       4    7    1        -0.3138488805E+00      0.6373509274E+00
          0                 3           2             4    7     1       0.3947355179E-03       4    7    1         0.2196938745E-01      0.4461454200E-01
          0                 4           1             4    7     1      -0.1570689870E-04       4    7    1        -0.8985494026E-03      0.1824737246E-02

    ------------------------------------------------
       NWT REQUIRED            4 OUTER ITERATIONS 
       AND A TOTAL OF          7 INNER ITERATIONS.
    ------------------------------------------------

 NO OUTPUT CONTROL FOR STRESS PERIOD   47   TIME STEP   21
 
 SOLVING FOR HEAD 
                                                   Max.-Head-Change                         Max.-Flux-Residual
  Residual-Control   Outer-Iter.   Inner-Iter.     Column Row Layer    Maximum-Head-Change  Column Row Layer    Maximum-Flux-Residual          L2-NORM 
          0                 1           2             4    7     1       0.5878788073E-01       4    7    1         0.3096216731E+01      0.6281367311E+01
          0                 2           2             4    7     1      -0.5718587267E-02       4    7    1        -0.3096262066E+00      0.6281652827E+00
          0                 3           2             4    7     1       0.3894139403E-03       4    7    1         0.2167380095E-01      0.4397154117E-01
          0                 4           1             4    7     1      -0.1549514819E-04       4    7    1        -0.8864598819E-03      0.1798437523E-02

    ------------------------------------------------
       NWT REQUIRED            4 OUTER ITERATIONS 
       AND A TOTAL OF          7 INNER ITERATIONS.
    ------------------------------------------------

 NO OUTPUT CONTROL FOR STRESS PERIOD   47   TIME STEP   22
 
 SOLVING FOR HEAD 
                                                   Max.-Head-Change                         Max.-Flux-Residual
  Residual-Control   Outer-Iter.   Inner-Iter.     Column Row Layer    Maximum-Head-Change  Column Row Layer    Maximum-Flux-Residual          L2-NORM 
          0                 1           2             4    7     1       0.5799273052E-01       4    7    1         0.3054446519E+01      0.6191592584E+01
          0                 2           2             4    7     1      -0.5641176822E-02       4    7    1        -0.3054491025E+00      0.6191615948E+00
          0                 3           2             4    7     1       0.3841425877E-03       4    7    1         0.2138140430E-01      0.4334128746E-01
          0                 4           1             4    7     1      -0.1528539583E-04       4    7    1        -0.8745008436E-03      0.1772662114E-02

    ------------------------------------------------
       NWT REQUIRED            4 OUTER ITERATIONS 
       AND A TOTAL OF          7 INNER ITERATIONS.
    ------------------------------------------------

 NO OUTPUT CONTROL FOR STRESS PERIOD   47   TIME STEP   23
 
 SOLVING FOR HEAD 
                                                   Max.-Head-Change                         Max.-Flux-Residual
  Residual-Control   Outer-Iter.   Inner-Iter.     Column Row Layer    Maximum-Head-Change  Column Row Layer    Maximum-Flux-Residual          L2-NORM 
          0                 1           2             4    7     1       0.5720675056E-01       4    7    1         0.3013135853E+01      0.6104062727E+01
          0                 2           2             4    7     1      -0.5564721168E-02       4    7    1        -0.3013179516E+00      0.6104085737E+00
          0                 3           2             4    7     1       0.3789362534E-03       4    7    1         0.2109222441E-01      0.4272857629E-01
          0                 4           1             4    7     1      -0.1507823120E-04       4    7    1        -0.8626733807E-03      0.1747601736E-02

    ------------------------------------------------
       NWT REQUIRED            4 OUTER ITERATIONS 
       AND A TOTAL OF          7 INNER ITERATIONS.
    ------------------------------------------------

 NO OUTPUT CONTROL FOR STRESS PERIOD   47   TIME STEP   24
 
 SOLVING FOR HEAD 
                                                   Max.-Head-Change                         Max.-Flux-Residual
  Residual-Control   Outer-Iter.   Inner-Iter.     Column Row Layer    Maximum-Head-Change  Column Row Layer    Maximum-Flux-Residual          L2-NORM 
          0                 1           2             4    7     1       0.5643008318E-01       4    7    1         0.2972297279E+01      0.6018708445E+01
          0                 2           2             4    7     1      -0.5489171361E-02       4    7    1        -0.2972340090E+00      0.6018731028E+00
          0                 3           2             4    7     1       0.3737916036E-03       4    7    1         0.2080634910E-01      0.4213108582E-01
          0                 4           1             4    7     1      -0.1487352097E-04       4    7    1        -0.8509810552E-03      0.1723167896E-02

    ------------------------------------------------
       NWT REQUIRED            4 OUTER ITERATIONS 
       AND A TOTAL OF          7 INNER ITERATIONS.
    ------------------------------------------------

 NO OUTPUT CONTROL FOR STRESS PERIOD   47   TIME STEP   25
 
 SOLVING FOR HEAD 
                                                   Max.-Head-Change                         Max.-Flux-Residual
  Residual-Control   Outer-Iter.   Inner-Iter.     Column Row Layer    Maximum-Head-Change  Column Row Layer    Maximum-Flux-Residual          L2-NORM 
          0                 1           2             4    7     1       0.5566290677E-01       4    7    1         0.2931941524E+01      0.5935452397E+01
          0                 2           2             4    7     1      -0.5414544758E-02       4    7    1        -0.2931983477E+00      0.5935474583E+00
          0                 3           2             4    7     1       0.3687098206E-03       4    7    1         0.2052385350E-01      0.4154829227E-01
          0                 4           1             4    7     1      -0.1467131154E-04       4    7    1        -0.8394269537E-03      0.1699332796E-02

    ------------------------------------------------
       NWT REQUIRED            4 OUTER ITERATIONS 
       AND A TOTAL OF          7 INNER ITERATIONS.
    ------------------------------------------------

 NO OUTPUT CONTROL FOR STRESS PERIOD   47   TIME STEP   26
 
 SOLVING FOR HEAD 
                                                   Max.-Head-Change                         Max.-Flux-Residual
  Residual-Control   Outer-Iter.   Inner-Iter.     Column Row Layer    Maximum-Head-Change  Column Row Layer    Maximum-Flux-Residual          L2-NORM 
          0                 1           2             4    7     1       0.5490550369E-01       4    7    1         0.2892085083E+01      0.5854212784E+01
          0                 2           2             4    7     1      -0.5340868831E-02       4    7    1        -0.2892126176E+00      0.5854234496E+00
          0                 3           2             4    7     1       0.3636927755E-03       4    7    1         0.2024485309E-01      0.4097961313E-01
          0                 4           1             4    7     1      -0.1447167844E-04       4    7    1        -0.8280158138E-03      0.1676066396E-02

    ------------------------------------------------
       NWT REQUIRED            4 OUTER ITERATIONS 
       AND A TOTAL OF          7 INNER ITERATIONS.
    ------------------------------------------------

 NO OUTPUT CONTROL FOR STRESS PERIOD   47   TIME STEP   27
 
 SOLVING FOR HEAD 
                                                   Max.-Head-Change                         Max.-Flux-Residual
  Residual-Control   Outer-Iter.   Inner-Iter.     Column Row Layer    Maximum-Head-Change  Column Row Layer    Maximum-Flux-Residual          L2-NORM 
          0                 1           2             4    7     1       0.5415799050E-01       4    7    1         0.2852735353E+01      0.5774921158E+01
          0                 2           2             4    7     1      -0.5268154917E-02       4    7    1        -0.2852775585E+00      0.5774942455E+00
          0                 3           2             4    7     1       0.3587412403E-03       4    7    1         0.1996939965E-01      0.4042456716E-01
          0                 4           1             4    7     1      -0.1427465240E-04       4    7    1        -0.8167497688E-03      0.1653363855E-02

    ------------------------------------------------
       NWT REQUIRED            4 OUTER ITERATIONS 
       AND A TOTAL OF          7 INNER ITERATIONS.
    ------------------------------------------------

 NO OUTPUT CONTROL FOR STRESS PERIOD   47   TIME STEP   28
 
 SOLVING FOR HEAD 
                                                   Max.-Head-Change                         Max.-Flux-Residual
  Residual-Control   Outer-Iter.   Inner-Iter.     Column Row Layer    Maximum-Head-Change  Column Row Layer    Maximum-Flux-Residual          L2-NORM 
          0                 1           2             4    7     1       0.5342045748E-01       4    7    1         0.2813898378E+01      0.5697499572E+01
          0                 2           2             4    7     1      -0.5196411806E-02       4    7    1        -0.2813937751E+00      0.5697520382E+00
          0                 3           2             4    7     1       0.3538558126E-03       4    7    1         0.1969753551E-01      0.3988261699E-01
          0                 4           1             4    7     1      -0.1408025657E-04       4    7    1        -0.8056304989E-03      0.1631199388E-02

    ------------------------------------------------
       NWT REQUIRED            4 OUTER ITERATIONS 
       AND A TOTAL OF          7 INNER ITERATIONS.
    ------------------------------------------------

 NO OUTPUT CONTROL FOR STRESS PERIOD   47   TIME STEP   29
 
 SOLVING FOR HEAD 
                                                   Max.-Head-Change                         Max.-Flux-Residual
  Residual-Control   Outer-Iter.   Inner-Iter.     Column Row Layer    Maximum-Head-Change  Column Row Layer    Maximum-Flux-Residual          L2-NORM 
          0                 1           2             4    7     1       0.5269284177E-01       4    7    1         0.2775571594E+01      0.5621885323E+01
          0                 2           2             4    7     1      -0.5125633382E-02       4    7    1        -0.2775610111E+00      0.5621905703E+00
          0                 3           2             4    7     1       0.3490360767E-03       4    7    1         0.1942924272E-01      0.3935331026E-01
          0                 4           1             4    7     1      -0.1388847506E-04       4    7    1        -0.7946573160E-03      0.1609550291E-02

    ------------------------------------------------
       NWT REQUIRED            4 OUTER ITERATIONS 
       AND A TOTAL OF          7 INNER ITERATIONS.
    ------------------------------------------------

 NO OUTPUT CONTROL FOR STRESS PERIOD   47   TIME STEP   30



 STREAM LISTING     PERIOD     47   STEP       30

 LAYER ROW COL. STREAM  RCH.  FLOW INTO     FLOW TO   FLOW OUT OF   OVRLND.     DIRECT     STREAM       STREAM     STREAM     STREAM   STREAMBED  STREAMBED
                SEG.NO.  NO.  STRM. RCH.    AQUIFER    STRM. RCH.    RUNOFF     PRECIP       ET          HEAD       DEPTH      WIDTH   CONDCTNC.   GRADIENT

   1    1    1     1     1    1.9000E+01  2.1427E-01   1.8786E+01  0.000E+00  0.000E+00  0.000E+00  1.09413E+03  1.082E+00  1.166E+01  5.249E-02  1.361E+00
   1    2    2     1     2    1.8786E+01  3.3054E-01   1.8455E+01  0.000E+00  0.000E+00  0.000E+00  1.08914E+03  1.077E+00  1.158E+01  8.107E-02  1.359E+00
   1    3    3     1     3    1.8455E+01  2.8064E-01   1.8175E+01  0.000E+00  0.000E+00  0.000E+00  1.08349E+03  1.072E+00  1.149E+01  6.892E-02  1.357E+00
   1    3    4     1     4    1.8175E+01  2.5740E-01   1.7917E+01  0.000E+00  0.000E+00  0.000E+00  1.07848E+03  1.068E+00  1.140E+01  6.328E-02  1.356E+00
   1    4    5     2     1    1.5917E+01  3.0542E-01   1.5612E+01  0.000E+00  0.000E+00  0.000E+00  1.07285E+03  9.157E-01  1.200E+01  7.800E-02  1.305E+00
   1    5    6     2     2    1.5612E+01  2.3438E-01   1.5377E+01  0.000E+00  0.000E+00  0.000E+00  1.06742E+03  9.063E-01  1.200E+01  6.000E-02  1.302E+00
   1    6    6     2     3    1.5377E+01  2.3388E-01   1.5143E+01  0.000E+00  0.000E+00  0.000E+00  1.06269E+03  8.980E-01  1.200E+01  6.000E-02  1.299E+00
   1    7    6     2     4    1.5143E+01  2.3338E-01   1.4910E+01  0.000E+00  0.000E+00  0.000E+00  1.05797E+03  8.897E-01  1.200E+01  6.000E-02  1.297E+00
   1    8    6     2     5    1.4910E+01  2.3289E-01   1.4677E+01  0.000E+00  0.000E+00  0.000E+00  1.05324E+03  8.814E-01  1.200E+01  6.000E-02  1.294E+00
   1    3    5     3     1    2.0000E+00  2.8252E-01   1.7175E+00  0.000E+00  0.000E+00  0.000E+00  1.07555E+03  1.909E+00  9.636E+00  7.227E-02  1.955E+00
   1    3    6     3     2    1.7175E+00  2.4905E-01   1.4684E+00  0.000E+00  0.000E+00  0.000E+00  1.07264E+03  1.727E+00  8.909E+00  6.682E-02  1.864E+00
   1    3    7     3     3    1.4684E+00  1.9718E-01   1.2712E+00  0.000E+00  0.000E+00  0.000E+00  1.06987E+03  1.555E+00  8.218E+00  5.547E-02  1.777E+00
   1    4    8     3     4    1.2712E+00  2.2567E-01   1.0456E+00  0.000E+00  0.000E+00  0.000E+00  1.06682E+03  1.364E+00  7.455E+00  6.709E-02  1.682E+00
   1    5    8     3     5    1.0456E+00  1.5790E-01   8.8768E-01  0.000E+00  0.000E+00  0.000E+00  1.06362E+03  1.164E+00  6.655E+00  4.991E-02  1.582E+00
   1    6    8     3     6    8.8768E-01  5.5980E-02   8.3170E-01  0.000E+00  0.000E+00  0.000E+00  1.06158E+03  1.036E+00  6.145E+00  1.844E-02  1.518E+00
   1    5   10     4     1    1.0000E+01  9.0919E-02   9.9091E+00  0.000E+00  0.000E+00  0.000E+00  1.07836E+03  6.368E-01  1.000E+01  2.500E-02  1.212E+00
   1    5    9     4     2    9.9091E+00  1.8158E-01   9.7275E+00  0.000E+00  0.000E+00  0.000E+00  1.07154E+03  6.315E-01  1.000E+01  5.000E-02  1.211E+00
   1    6    8     4     3    9.7275E+00  1.2689E-01   9.6006E+00  0.000E+00  0.000E+00  0.000E+00  1.06381E+03  6.256E-01  1.000E+01  3.500E-02  1.209E+00
   1    6    8     5     1    1.0432E+01  2.2686E-01   1.0205E+01  0.000E+00  0.000E+00  0.000E+00  1.05868E+03  6.790E-01  1.542E+01  6.166E-02  1.226E+00
   1    7    7     5     2    1.0205E+01  2.7894E-01   9.9265E+00  0.000E+00  0.000E+00  0.000E+00  1.05417E+03  6.732E-01  1.519E+01  7.594E-02  1.224E+00
   1    8    7     5     3    9.9265E+00  1.9221E-01   9.7343E+00  0.000E+00  0.000E+00  0.000E+00  1.04992E+03  6.676E-01  1.497E+01  5.241E-02  1.223E+00
   1    8    6     5     4    9.7343E+00  1.3577E-01   9.5985E+00  0.000E+00  0.000E+00  0.000E+00  1.04691E+03  6.637E-01  1.482E+01  3.706E-02  1.221E+00
   1    9    6     6     1    2.4276E+01  2.5176E-01   2.4024E+01  0.000E+00  0.000E+00  0.000E+00  1.04392E+03  1.196E+00  1.200E+01  6.000E-02  1.399E+00
   1   10    7     6     2    2.4024E+01  2.5131E-01   2.3773E+01  0.000E+00  0.000E+00  0.000E+00  1.03937E+03  1.188E+00  1.200E+01  6.000E-02  1.396E+00
   1   11    7     6     3    2.3773E+01  2.5086E-01   2.3522E+01  0.000E+00  0.000E+00  0.000E+00  1.03482E+03  1.181E+00  1.200E+01  6.000E-02  1.394E+00
   1   12    7     6     4    2.3522E+01  2.5041E-01   2.3271E+01  0.000E+00  0.000E+00  0.000E+00  1.03026E+03  1.173E+00  1.200E+01  6.000E-02  1.391E+00
   1   13    7     6     5    2.3271E+01  1.1909E-02   2.3259E+01  0.000E+00  0.000E+00  0.000E+00  1.02708E+03  1.169E+00  1.200E+01  2.400E-02  1.654E-01
   1   14    9     7     1    1.5000E+02  1.3789E+00   1.4862E+02  0.000E+00  0.000E+00  0.000E+00  1.03987E+03  2.288E+00  5.529E+01  5.593E-01  8.218E-01
   1   13    8     7     2    1.4862E+02  1.9886E+00   1.4663E+02  0.000E+00  0.000E+00  0.000E+00  1.03478E+03  2.279E+00  5.525E+01  6.147E-01  1.078E+00
   1   13    7     7     3    1.4663E+02  1.7341E+00   1.4490E+02  0.000E+00  0.000E+00  0.000E+00  1.02969E+03  2.269E+00  5.521E+01  5.584E-01  1.035E+00
   1   13    6     8     1    1.6816E+02  1.1649E+00   1.6699E+02  0.000E+00  0.000E+00  0.000E+00  1.02481E+03  2.936E+00  4.258E+01  4.339E-01  8.950E-01
   1   13    5     8     2    1.6699E+02  3.9986E-01   1.6659E+02  0.000E+00  0.000E+00  0.000E+00  1.01856E+03  2.931E+00  4.250E+01  4.331E-01  3.077E-01
   1   13    4     8     3    1.6659E+02 -1.6831E+00   1.6828E+02  0.000E+00  0.000E+00  0.000E+00  1.01231E+03  2.935E+00  4.256E+01  4.337E+00 -1.293E-01
   1   13    3     8     4    1.6828E+02 -3.2832E+00   1.7156E+02  0.000E+00  0.000E+00  0.000E+00  1.00608E+03  2.952E+00  4.280E+01  4.361E+00 -2.509E-01
   1   13    2     8     5    1.7156E+02 -2.4840E+00   1.7404E+02  0.000E+00  0.000E+00  0.000E+00  9.99845E+02  2.970E+00  4.307E+01  4.389E+00 -1.887E-01
   1   13    1     8     6    1.7404E+02 -1.9573E+00   1.7600E+02  0.000E+00  0.000E+00  0.000E+00  9.94860E+02  2.985E+00  4.328E+01  2.646E+00 -2.466E-01





UNSATURATED ZONE PACKAGE VOLUMETRIC BUDGET FOR  TIME STEP    30 STRESS PERIOD   47
  ------------------------------------------------------------------------------



     CUMULATIVE VOLUMES      L**3       RATES FOR THIS TIME STEP      L**3/T
     ------------------                 ------------------------

           IN:                                      IN:
           ---                                      ---
        INFILTRATION =  2124721764.9297          INFILTRATION =           4.4075

          OUT:                                     OUT:
          ----                                     ----
              UZF ET =  1997303267.8195                UZF ET =           3.7800
        UZF RECHARGE =     1377863.0341          UZF RECHARGE =       0.0000E+00

            IN - OUT =   126040634.0762              IN - OUT =           0.6275

          STORAGE:                                 STORAGE:
          --------                                 --------
      STORAGE CHANGE =   126041552.2304        STORAGE CHANGE =           0.6275

 PERCENT DISCREPANCY IS DIFFERENCE BETWEEN IN-OUT MINUS CHANGE IN STORAGE
 DIVIDED BY THE AVERAGE OF IN AND OUT TIMES 100

 PERCENT DISCREPANCY =          -0.00     PERCENT DISCREPANCY =           0.00






1
  VOLUMETRIC BUDGET FOR AGRICULTURAL FIELDS AT TIME STEP   30, STRESS PERIOD  47
  ------------------------------------------------------------------------------

     CUMULATIVE VOLUMES      L**3       RATES FOR THIS TIME STEP      L**3/T
     ------------------                 ------------------------

           IN:                                      IN:
           ---                                      ---
               AG WELLS  =  1591428992.0000                 AG WELLS  =           0.0000
      DIVERSION SEGMENTS =           0.0000        DIVERSION SEGMENTS =           0.0000
           GW IRRIGATION =           0.0000             GW IRRIGATION =           0.0000
           SW IRRIGATION =           0.0000             SW IRRIGATION =           0.0000
        SYSTEM LOSSES GW =           0.0000          SYSTEM LOSSES GW =           0.0000
        SYSTEM LOSSES SW =           0.0000          SYSTEM LOSSES SW =           0.0000

                TOTAL IN =  1591428992.0000                  TOTAL IN =           0.0000

          OUT:                                     OUT:
          ----                                     ----
               AG WELLS  =           0.0000                 AG WELLS  =           0.0000
      DIVERSION SEGMENTS =           0.0000        DIVERSION SEGMENTS =           0.0000
           GW IRRIGATION =  1591428992.0000             GW IRRIGATION =           0.0000
           SW IRRIGATION =           0.0000             SW IRRIGATION =           0.0000
        SYSTEM LOSSES GW =           0.0000          SYSTEM LOSSES GW =           0.0000
        SYSTEM LOSSES SW =           0.0000          SYSTEM LOSSES SW =           0.0000

               TOTAL OUT =  1591428992.0000                 TOTAL OUT =           0.0000

                IN - OUT =           0.0000                  IN - OUT =           0.0000

     PERCENT DISCREPANCY =           0.00         PERCENT DISCREPANCY =           0.00



1
  VOLUMETRIC BUDGET FOR ENTIRE MODEL AT END OF TIME STEP   30, STRESS PERIOD  47
  ------------------------------------------------------------------------------

     CUMULATIVE VOLUMES      L**3       RATES FOR THIS TIME STEP      L**3/T
     ------------------                 ------------------------

           IN:                                      IN:
           ---                                      ---
             STORAGE     =  2123597824.0000               STORAGE     =          12.1012
       CONSTANT HEAD     =           0.0000         CONSTANT HEAD     =           0.0000
     HEAD DEP BOUNDS     =    34662012.0000       HEAD DEP BOUNDS     =           0.2887
      STREAM LEAKAGE     =  1483240704.0000        STREAM LEAKAGE     =          12.4069
        UZF RECHARGE     =     1377861.8750          UZF RECHARGE     =           0.0000
               GW ET     =           0.0000                 GW ET     =           0.0000
     SURFACE LEAKAGE     =           0.0000       SURFACE LEAKAGE     =           0.0000
           AG WELLS      =           0.0000             AG WELLS      =           0.0000

                TOTAL IN =  3642878208.0000                  TOTAL IN =          24.7968

          OUT:                                     OUT:
          ----                                     ----
             STORAGE     =   774039872.0000               STORAGE     =          15.1004
       CONSTANT HEAD     =           0.0000         CONSTANT HEAD     =           0.0000
     HEAD DEP BOUNDS     =    35311412.0000       HEAD DEP BOUNDS     =           0.2888
      STREAM LEAKAGE     =  1224757248.0000        STREAM LEAKAGE     =           9.4075
        UZF RECHARGE     =           0.0000          UZF RECHARGE     =           0.0000
               GW ET     =    17343536.0000                 GW ET     =           0.0000
     SURFACE LEAKAGE     =           0.0000       SURFACE LEAKAGE     =           0.0000
           AG WELLS      =  1591428992.0000             AG WELLS      =           0.0000

               TOTAL OUT =  3642881024.0000                 TOTAL OUT =          24.7968

                IN - OUT =       -2816.0000                  IN - OUT =       1.5259E-05

     PERCENT DISCREPANCY =          -0.00         PERCENT DISCREPANCY =           0.00






         TIME SUMMARY AT END OF TIME STEP   30 IN STRESS PERIOD   47
                    SECONDS     MINUTES      HOURS       DAYS        YEARS
                    -----------------------------------------------------------
   TIME STEP LENGTH  87667.      1461.1      24.352      1.0147     2.77799E-03
 STRESS PERIOD TIME 2.63000E+06  43833.      730.56      30.440     8.33397E-02
         TOTAL TIME 1.21065E+08 2.01775E+06  33629.      1401.2      3.8363    
1
1
                            STRESS PERIOD NO.   48, LENGTH =   2630000.    
                            -----------------------------------------------

                              NUMBER OF TIME STEPS =    30

                               MULTIPLIER FOR DELT =     1.000

                            INITIAL TIME STEP SIZE =   87666.66    

 REUSING NON-PARAMETER GHB CELLS FROM LAST STRESS PERIOD

      2 GHB CELLS

 REUSING STREAM SEGMENT DATA FROM LAST STRESS PERIOD



            AREAL INFILTRATION RATE
 READING ON UNIT   19 WITH FORMAT: (10F4.0)            

            1           2           3           4           5           6           7           8           9          10
 ........................................................................................................................
   1   1.2000E-09   0.000       0.000       0.000       0.000       0.000       0.000       0.000       0.000       0.000    
   2   2.1000E-09  2.0000E-09  8.0000E-10  8.5000E-09   0.000       0.000       0.000       0.000       0.000       0.000    
   3   5.0000E-10  1.1000E-09  8.8000E-09  5.5000E-09   0.000       0.000       0.000       0.000       0.000       0.000    
   4   8.5000E-09  1.1000E-09  1.1000E-09  1.1000E-09  2.0000E-09   0.000       0.000       0.000       0.000       0.000    
   5   8.5000E-09  1.1000E-09  1.1000E-09  1.1000E-09  1.1000E-09   0.000       0.000       0.000       0.000       0.000    
   6   8.5000E-09  5.2000E-09  2.1000E-09  1.1000E-09  1.5000E-09   0.000       0.000       0.000       0.000       0.000    
   7   8.5000E-09  5.2000E-09  2.1000E-09  1.2000E-09  2.0000E-09   0.000       0.000       0.000       0.000       0.000    
   8   5.0000E-10  5.2000E-09  2.1000E-09  1.2000E-09  5.0000E-09   0.000       0.000       0.000       0.000       0.000    
   9   5.0000E-10  5.2000E-09  2.1000E-09  1.2000E-09  5.0000E-09   0.000       0.000       0.000       0.000       0.000    
  10   5.0000E-10  5.2000E-09  2.1000E-09  1.2000E-09  5.8000E-09   0.000       0.000       0.000       0.000       0.000    
  11   1.0000E-10  1.1000E-09  1.1000E-09  1.2000E-09  5.0000E-09   0.000       0.000       0.000       0.000       0.000    
  12   1.1000E-09  1.1000E-09  1.1000E-09  1.1000E-09  2.0000E-09   0.000       0.000       0.000       0.000       0.000    
  13   1.1000E-09  2.2000E-09  2.2000E-09  2.1000E-09  1.0000E-09   0.000       0.000       0.000       0.000       0.000    
  14   2.0000E-10  5.5000E-09  5.5000E-09  5.2000E-09  1.0000E-09   0.000       0.000       0.000       0.000       0.000    
  15    0.000      8.8000E-09  8.8000E-09   0.000       0.000       0.000       0.000       0.000       0.000       0.000    

                  ET RATE =  5.000000E-10

 USING ET EXTINCTION DEPTH FROM PREVIOUS STRESS PERIOD. CURRENT PERIOD IS:      48

 USING EXTINCTION WATER CONTENT FROM PREVIOUS STRESS PERIOD. CURRENT PERIOD IS:      48

 USING AIR ENTRY PRESSURE FROM PREVIOUS STRESS PERIOD. CURRENT PERIOD IS:      48

 USING ROOT PRESSURE HEAD FROM PREVIOUS STRESS PERIOD. CURRENT PERIOD IS:      48

 USING ROOT ACTIVITY FROM PREVIOUS STRESS PERIOD. CURRENT PERIOD IS:      48

 PROCESSING AG STRESS PERIOD DATA

 READING AG STRESS PERIOD DATA

 READING IRRIGATION WELL

 END PROCESSING AG STRESS PERIOD DATA OPTIONS
 
 SOLVING FOR HEAD 
                                                   Max.-Head-Change                         Max.-Flux-Residual
  Residual-Control   Outer-Iter.   Inner-Iter.     Column Row Layer    Maximum-Head-Change  Column Row Layer    Maximum-Flux-Residual          L2-NORM 
          0                 1           2             4    7     1       0.5197546638E-01       4    7    1         0.2737773480E+01      0.5548020301E+01
          0                 2           2             4    7     1      -0.5055851070E-02       4    7    1        -0.2737811147E+00      0.5548040118E+00
          0                 3           2             4    7     1       0.3442841722E-03       4    7    1         0.1916465068E-01      0.3883624983E-01
          0                 4           1             4    7     1      -0.1369939179E-04       4    7    1        -0.7838354666E-03      0.1588404960E-02

    ------------------------------------------------
       NWT REQUIRED            4 OUTER ITERATIONS 
       AND A TOTAL OF          7 INNER ITERATIONS.
    ------------------------------------------------

 NO OUTPUT CONTROL FOR STRESS PERIOD   48   TIME STEP    1
 
 SOLVING FOR HEAD 
                                                   Max.-Head-Change                         Max.-Flux-Residual
  Residual-Control   Outer-Iter.   Inner-Iter.     Column Row Layer    Maximum-Head-Change  Column Row Layer    Maximum-Flux-Residual          L2-NORM 
          0                 1           2             4    7     1       0.5126821953E-01       4    7    1         0.2700499045E+01      0.5475840363E+01
          0                 2           2             4    7     1      -0.4987053999E-02       4    7    1        -0.2700535869E+00      0.5475859680E+00
          0                 3           2             4    7     1       0.3395993585E-03       4    7    1         0.1890372441E-01      0.3833098688E-01
          0                 4           1             4    7     1      -0.1351297868E-04       4    7    1        -0.7731635556E-03      0.1567737329E-02

    ------------------------------------------------
       NWT REQUIRED            4 OUTER ITERATIONS 
       AND A TOTAL OF          7 INNER ITERATIONS.
    ------------------------------------------------

 NO OUTPUT CONTROL FOR STRESS PERIOD   48   TIME STEP    2
 
 SOLVING FOR HEAD 
                                                   Max.-Head-Change                         Max.-Flux-Residual
  Residual-Control   Outer-Iter.   Inner-Iter.     Column Row Layer    Maximum-Head-Change  Column Row Layer    Maximum-Flux-Residual          L2-NORM 
          0                 1           2             4    7     1       0.5057124680E-01       4    7    1         0.2663756991E+01      0.5405290398E+01
          0                 2           2             4    7     1      -0.4919256332E-02       4    7    1        -0.2663792979E+00      0.5405309222E+00
          0                 3           2             4    7     1       0.3349826009E-03       4    7    1         0.1864652486E-01      0.3783713369E-01
          0                 4           1             4    7     1      -0.1332927348E-04       4    7    1        -0.7626440856E-03      0.1547542368E-02

    ------------------------------------------------
       NWT REQUIRED            4 OUTER ITERATIONS 
       AND A TOTAL OF          7 INNER ITERATIONS.
    ------------------------------------------------

 NO OUTPUT CONTROL FOR STRESS PERIOD   48   TIME STEP    3
 
 SOLVING FOR HEAD 
                                                   Max.-Head-Change                         Max.-Flux-Residual
  Residual-Control   Outer-Iter.   Inner-Iter.     Column Row Layer    Maximum-Head-Change  Column Row Layer    Maximum-Flux-Residual          L2-NORM 
          0                 1           2             4    7     1       0.4988440276E-01       4    7    1         0.2627540367E+01      0.5336305239E+01
          0                 2           2             4    7     1      -0.4852443923E-02       4    7    1        -0.2627575529E+00      0.5336323549E+00
          0                 3           2             4    7     1       0.3304329351E-03       4    7    1         0.1839300337E-01      0.3735423411E-01
          0                 4           1             4    7     1      -0.1314823821E-04       4    7    1        -0.7522750345E-03      0.1527788993E-02

    ------------------------------------------------
       NWT REQUIRED            4 OUTER ITERATIONS 
       AND A TOTAL OF          7 INNER ITERATIONS.
    ------------------------------------------------

 NO OUTPUT CONTROL FOR STRESS PERIOD   48   TIME STEP    4
 
 SOLVING FOR HEAD 
                                                   Max.-Head-Change                         Max.-Flux-Residual
  Residual-Control   Outer-Iter.   Inner-Iter.     Column Row Layer    Maximum-Head-Change  Column Row Layer    Maximum-Flux-Residual          L2-NORM 
          0                 1           2             4    7     1       0.4920780473E-01       4    7    1         0.2591856133E+01      0.5268849036E+01
          0                 2           2             4    7     1      -0.4786628186E-02       4    7    1        -0.2591890479E+00      0.5268866874E+00
          0                 3           2             4    7     1       0.3259511395E-03       4    7    1         0.1814320869E-01      0.3688204104E-01
          0                 4           1             4    7     1      -0.1296990336E-04       4    7    1        -0.7420584318E-03      0.1508481921E-02

    ------------------------------------------------
       NWT REQUIRED            4 OUTER ITERATIONS 
       AND A TOTAL OF          7 INNER ITERATIONS.
    ------------------------------------------------

 NO OUTPUT CONTROL FOR STRESS PERIOD   48   TIME STEP    5
 
 SOLVING FOR HEAD 
                                                   Max.-Head-Change                         Max.-Flux-Residual
  Residual-Control   Outer-Iter.   Inner-Iter.     Column Row Layer    Maximum-Head-Change  Column Row Layer    Maximum-Flux-Residual          L2-NORM 
          0                 1           2             4    7     1       0.4854141472E-01       4    7    1         0.2556703122E+01      0.5202871796E+01
          0                 2           2             4    7     1      -0.4721805429E-02       4    7    1        -0.2556736664E+00      0.5202889131E+00
          0                 3           2             4    7     1       0.3215369617E-03       4    7    1         0.1789713265E-01      0.3642018951E-01
          0                 4           1             4    7     1      -0.1279425883E-04       4    7    1        -0.7319938934E-03      0.1489583839E-02

    ------------------------------------------------
       NWT REQUIRED            4 OUTER ITERATIONS 
       AND A TOTAL OF          7 INNER ITERATIONS.
    ------------------------------------------------

 NO OUTPUT CONTROL FOR STRESS PERIOD   48   TIME STEP    6
 
 SOLVING FOR HEAD 
                                                   Max.-Head-Change                         Max.-Flux-Residual
  Residual-Control   Outer-Iter.   Inner-Iter.     Column Row Layer    Maximum-Head-Change  Column Row Layer    Maximum-Flux-Residual          L2-NORM 
          0                 1           2             4    7     1       0.4788518286E-01       4    7    1         0.2522079367E+01      0.5138317908E+01
          0                 2           2             4    7     1      -0.4657970799E-02       4    7    1        -0.2522112117E+00      0.5138334743E+00
          0                 3           2             4    7     1       0.3171900710E-03       4    7    1         0.1765476146E-01      0.3596830958E-01
          0                 4           1             4    7     1      -0.1262129204E-04       4    7    1        -0.7220808823E-03      0.1471103279E-02

    ------------------------------------------------
       NWT REQUIRED            4 OUTER ITERATIONS 
       AND A TOTAL OF          7 INNER ITERATIONS.
    ------------------------------------------------

 NO OUTPUT CONTROL FOR STRESS PERIOD   48   TIME STEP    7
 
 SOLVING FOR HEAD 
                                                   Max.-Head-Change                         Max.-Flux-Residual
  Residual-Control   Outer-Iter.   Inner-Iter.     Column Row Layer    Maximum-Head-Change  Column Row Layer    Maximum-Flux-Residual          L2-NORM 
          0                 1           2             4    7     1       0.4723904527E-01       4    7    1         0.2487982281E+01      0.5075139469E+01
          0                 2           2             4    7     1      -0.4595118086E-02       4    7    1        -0.2488014250E+00      0.5075155815E+00
          0                 3           2             4    7     1       0.3129100458E-03       4    7    1         0.1741607703E-01      0.3552606218E-01
          0                 4           1             4    7     1      -0.1245098574E-04       4    7    1        -0.7123186799E-03      0.1453016575E-02

    ------------------------------------------------
       NWT REQUIRED            4 OUTER ITERATIONS 
       AND A TOTAL OF          7 INNER ITERATIONS.
    ------------------------------------------------

 NO OUTPUT CONTROL FOR STRESS PERIOD   48   TIME STEP    8
 
 SOLVING FOR HEAD 
                                                   Max.-Head-Change                         Max.-Flux-Residual
  Residual-Control   Outer-Iter.   Inner-Iter.     Column Row Layer    Maximum-Head-Change  Column Row Layer    Maximum-Flux-Residual          L2-NORM 
          0                 1           2             4    7     1       0.4660307104E-01       4    7    1         0.2454415806E+01      0.5013315964E+01
          0                 2           2             4    7     1      -0.4533254008E-02       4    7    1        -0.2454447009E+00      0.5013331754E+00
          0                 3           2             4    7     1       0.3086973426E-03       4    7    1         0.1718110696E-01      0.3509329243E-01
          0                 4           1             4    7     1      -0.1228335846E-04       4    7    1        -0.7027083986E-03      0.1435322784E-02

    ------------------------------------------------
       NWT REQUIRED            4 OUTER ITERATIONS 
       AND A TOTAL OF          7 INNER ITERATIONS.
    ------------------------------------------------

 NO OUTPUT CONTROL FOR STRESS PERIOD   48   TIME STEP    9
 
 SOLVING FOR HEAD 
                                                   Max.-Head-Change                         Max.-Flux-Residual
  Residual-Control   Outer-Iter.   Inner-Iter.     Column Row Layer    Maximum-Head-Change  Column Row Layer    Maximum-Flux-Residual          L2-NORM 
          0                 1           2             4    7     1       0.4597703758E-01       4    7    1         0.2421369018E+01      0.4952781243E+01
          0                 2           2             4    7     1      -0.4472356917E-02       4    7    1        -0.2421399468E+00      0.4952796544E+00
          0                 3           2             4    7     1       0.3045504868E-03       4    7    1         0.1694977477E-01      0.3466954426E-01
          0                 4           1             4    7     1      -0.1211835113E-04       4    7    1        -0.6932468877E-03      0.1417980023E-02

    ------------------------------------------------
       NWT REQUIRED            4 OUTER ITERATIONS 
       AND A TOTAL OF          7 INNER ITERATIONS.
    ------------------------------------------------

 NO OUTPUT CONTROL FOR STRESS PERIOD   48   TIME STEP   10
 
 SOLVING FOR HEAD 
                                                   Max.-Head-Change                         Max.-Flux-Residual
  Residual-Control   Outer-Iter.   Inner-Iter.     Column Row Layer    Maximum-Head-Change  Column Row Layer    Maximum-Flux-Residual          L2-NORM 
          0                 1           2             4    7     1       0.4536099043E-01       4    7    1         0.2388844885E+01      0.4893508361E+01
          0                 2           2             4    7     1      -0.4412431241E-02       4    7    1        -0.2388874596E+00      0.4893523155E+00
          0                 3           2             4    7     1       0.3004697813E-03       4    7    1         0.1672210128E-01      0.3425462454E-01
          0                 4           1             4    7     1      -0.1195597609E-04       4    7    1        -0.6839350281E-03      0.1401055893E-02

    ------------------------------------------------
       NWT REQUIRED            4 OUTER ITERATIONS 
       AND A TOTAL OF          7 INNER ITERATIONS.
    ------------------------------------------------

 NO OUTPUT CONTROL FOR STRESS PERIOD   48   TIME STEP   11
 
 SOLVING FOR HEAD 
                                                   Max.-Head-Change                         Max.-Flux-Residual
  Residual-Control   Outer-Iter.   Inner-Iter.     Column Row Layer    Maximum-Head-Change  Column Row Layer    Maximum-Flux-Residual          L2-NORM 
          0                 1           2             4    7     1       0.4475483295E-01       4    7    1         0.2356838515E+01      0.4835463926E+01
          0                 2           2             4    7     1      -0.4353467583E-02       4    7    1        -0.2356867500E+00      0.4835479220E+00
          0                 3           2             4    7     1       0.2964545851E-03       4    7    1         0.1649805220E-01      0.3384831392E-01
          0                 4           1             4    7     1      -0.1179620718E-04       4    7    1        -0.6747714008E-03      0.1384397206E-02

    ------------------------------------------------
       NWT REQUIRED            4 OUTER ITERATIONS 
       AND A TOTAL OF          7 INNER ITERATIONS.
    ------------------------------------------------

 NO OUTPUT CONTROL FOR STRESS PERIOD   48   TIME STEP   12
 
 SOLVING FOR HEAD 
                                                   Max.-Head-Change                         Max.-Flux-Residual
  Residual-Control   Outer-Iter.   Inner-Iter.     Column Row Layer    Maximum-Head-Change  Column Row Layer    Maximum-Flux-Residual          L2-NORM 
          0                 1           2             4    7     1       0.4415832249E-01       4    7    1         0.2325337639E+01      0.4778598666E+01
          0                 2           2             4    7     1      -0.4295442336E-02       4    7    1        -0.2325365913E+00      0.4778612476E+00
          0                 3           2             4    7     1       0.2925032914E-03       4    7    1         0.1627754168E-01      0.3345024989E-01
          0                 4           1             4    7     1      -0.1163898179E-04       4    7    1        -0.6657525071E-03      0.1368116693E-02

    ------------------------------------------------
       NWT REQUIRED            4 OUTER ITERATIONS 
       AND A TOTAL OF          7 INNER ITERATIONS.
    ------------------------------------------------

 NO OUTPUT CONTROL FOR STRESS PERIOD   48   TIME STEP   13
 
 SOLVING FOR HEAD 
                                                   Max.-Head-Change                         Max.-Flux-Residual
  Residual-Control   Outer-Iter.   Inner-Iter.     Column Row Layer    Maximum-Head-Change  Column Row Layer    Maximum-Flux-Residual          L2-NORM 
          0                 1           2             4    7     1       0.4357161983E-01       4    7    1         0.2294351449E+01      0.4722889148E+01
          0                 2           2             4    7     1      -0.4238371143E-02       4    7    1        -0.2294379027E+00      0.4722902457E+00
          0                 3           2             4    7     1       0.2886169643E-03       4    7    1         0.1606063403E-01      0.3306027870E-01
          0                 4           1             4    7     1      -0.1148434090E-04       4    7    1        -0.6568809620E-03      0.1352166423E-02

    ------------------------------------------------
       NWT REQUIRED            4 OUTER ITERATIONS 
       AND A TOTAL OF          7 INNER ITERATIONS.
    ------------------------------------------------

 NO OUTPUT CONTROL FOR STRESS PERIOD   48   TIME STEP   14
 
 SOLVING FOR HEAD 
                                                   Max.-Head-Change                         Max.-Flux-Residual
  Residual-Control   Outer-Iter.   Inner-Iter.     Column Row Layer    Maximum-Head-Change  Column Row Layer    Maximum-Flux-Residual          L2-NORM 
          0                 1           2             4    7     1       0.4299446812E-01       4    7    1         0.2263866509E+01      0.4668299905E+01
          0                 2           2             4    7     1      -0.4182229018E-02       4    7    1        -0.2263893406E+00      0.4668312754E+00
          0                 3           2             4    7     1       0.2847939038E-03       4    7    1         0.1584723524E-01      0.3267814897E-01
          0                 4           1             4    7     1      -0.1133221797E-04       4    7    1        -0.6481529467E-03      0.1336534876E-02

    ------------------------------------------------
       NWT REQUIRED            4 OUTER ITERATIONS 
       AND A TOTAL OF          7 INNER ITERATIONS.
    ------------------------------------------------

 NO OUTPUT CONTROL FOR STRESS PERIOD   48   TIME STEP   15
 
 SOLVING FOR HEAD 
                                                   Max.-Head-Change                         Max.-Flux-Residual
  Residual-Control   Outer-Iter.   Inner-Iter.     Column Row Layer    Maximum-Head-Change  Column Row Layer    Maximum-Flux-Residual          L2-NORM 
          0                 1           2             4    7     1       0.4242674878E-01       4    7    1         0.2233876761E+01      0.4614800309E+01
          0                 2           2             4    7     1      -0.4127004426E-02       4    7    1        -0.2233902990E+00      0.4614812727E+00
          0                 3           2             4    7     1       0.2810333234E-03       4    7    1         0.1563730287E-01      0.3230364769E-01
          0                 4           1             4    7     1      -0.1118258087E-04       4    7    1        -0.6395666965E-03      0.1321218200E-02

    ------------------------------------------------
       NWT REQUIRED            4 OUTER ITERATIONS 
       AND A TOTAL OF          7 INNER ITERATIONS.
    ------------------------------------------------

 NO OUTPUT CONTROL FOR STRESS PERIOD   48   TIME STEP   16
 
 SOLVING FOR HEAD 
                                                   Max.-Head-Change                         Max.-Flux-Residual
  Residual-Control   Outer-Iter.   Inner-Iter.     Column Row Layer    Maximum-Head-Change  Column Row Layer    Maximum-Flux-Residual          L2-NORM 
          0                 1           2             4    7     1       0.4186847134E-01       4    7    1         0.2204383314E+01      0.4562355288E+01
          0                 2           2             4    7     1      -0.4072698296E-02       4    7    1        -0.2204408891E+00      0.4562367206E+00
          0                 3           2             4    7     1       0.2773352867E-03       4    7    1         0.1543084470E-01      0.3193653169E-01
          0                 4           1             4    7     1      -0.1103543237E-04       4    7    1        -0.6311225468E-03      0.1306202019E-02

    ------------------------------------------------
       NWT REQUIRED            4 OUTER ITERATIONS 
       AND A TOTAL OF          7 INNER ITERATIONS.
    ------------------------------------------------

 NO OUTPUT CONTROL FOR STRESS PERIOD   48   TIME STEP   17
 
 SOLVING FOR HEAD 
                                                   Max.-Head-Change                         Max.-Flux-Residual
  Residual-Control   Outer-Iter.   Inner-Iter.     Column Row Layer    Maximum-Head-Change  Column Row Layer    Maximum-Flux-Residual          L2-NORM 
          0                 1           2             4    7     1       0.4131949950E-01       4    7    1         0.2175379406E+01      0.4510941346E+01
          0                 2           2             4    7     1      -0.4019297369E-02       4    7    1        -0.2175404346E+00      0.4510952807E+00
          0                 3           2             4    7     1       0.2736988906E-03       4    7    1         0.1522781342E-01      0.3157663138E-01
          0                 4           1             4    7     1      -0.1089073655E-04       4    7    1        -0.6228185334E-03      0.1291487201E-02

    ------------------------------------------------
       NWT REQUIRED            4 OUTER ITERATIONS 
       AND A TOTAL OF          7 INNER ITERATIONS.
    ------------------------------------------------

 NO OUTPUT CONTROL FOR STRESS PERIOD   48   TIME STEP   18
 
 SOLVING FOR HEAD 
                                                   Max.-Head-Change                         Max.-Flux-Residual
  Residual-Control   Outer-Iter.   Inner-Iter.     Column Row Layer    Maximum-Head-Change  Column Row Layer    Maximum-Flux-Residual          L2-NORM 
          0                 1           2             4    7     1       0.4077956335E-01       4    7    1         0.2146850709E+01      0.4460521699E+01
          0                 2           2             4    7     1      -0.3966775390E-02       4    7    1        -0.2146875026E+00      0.4460532738E+00
          0                 3           2             4    7     1       0.2701223473E-03       4    7    1         0.1502810867E-01      0.3122368719E-01
          0                 4           1             4    7     1      -0.1074842283E-04       4    7    1        -0.6146506023E-03      0.1277047779E-02

    ------------------------------------------------
       NWT REQUIRED            4 OUTER ITERATIONS 
       AND A TOTAL OF          7 INNER ITERATIONS.
    ------------------------------------------------

 NO OUTPUT CONTROL FOR STRESS PERIOD   48   TIME STEP   19
 
 SOLVING FOR HEAD 
                                                   Max.-Head-Change                         Max.-Flux-Residual
  Residual-Control   Outer-Iter.   Inner-Iter.     Column Row Layer    Maximum-Head-Change  Column Row Layer    Maximum-Flux-Residual          L2-NORM 
          0                 1           2             4    7     1       0.4024880183E-01       4    7    1         0.2118805011E+01      0.4411083590E+01
          0                 2           2             4    7     1      -0.3915145872E-02       4    7    1        -0.2118828720E+00      0.4411094214E+00
          0                 3           2             4    7     1       0.2666065775E-03       4    7    1         0.1483178501E-01      0.3087761852E-01
          0                 4           1             4    7     1      -0.1060852714E-04       4    7    1        -0.6066209623E-03      0.1262896781E-02

    ------------------------------------------------
       NWT REQUIRED            4 OUTER ITERATIONS 
       AND A TOTAL OF          7 INNER ITERATIONS.
    ------------------------------------------------

 NO OUTPUT CONTROL FOR STRESS PERIOD   48   TIME STEP   20
 
 SOLVING FOR HEAD 
                                                   Max.-Head-Change                         Max.-Flux-Residual
  Residual-Control   Outer-Iter.   Inner-Iter.     Column Row Layer    Maximum-Head-Change  Column Row Layer    Maximum-Flux-Residual          L2-NORM 
          0                 1           2             4    7     1       0.3972679864E-01       4    7    1         0.2091220471E+01      0.4362583657E+01
          0                 2           2             4    7     1      -0.3864368323E-02       4    7    1        -0.2091243587E+00      0.4362593796E+00
          0                 3           2             4    7     1       0.2631488230E-03       4    7    1         0.1463868955E-01      0.3053811107E-01
          0                 4           1             4    7     1      -0.1047093976E-04       4    7    1        -0.5987233383E-03      0.1249009176E-02

    ------------------------------------------------
       NWT REQUIRED            4 OUTER ITERATIONS 
       AND A TOTAL OF          7 INNER ITERATIONS.
    ------------------------------------------------

 NO OUTPUT CONTROL FOR STRESS PERIOD   48   TIME STEP   21
 
 SOLVING FOR HEAD 
                                                   Max.-Head-Change                         Max.-Flux-Residual
  Residual-Control   Outer-Iter.   Inner-Iter.     Column Row Layer    Maximum-Head-Change  Column Row Layer    Maximum-Flux-Residual          L2-NORM 
          0                 1           2             4    7     1       0.3921368870E-01       4    7    1         0.2064104554E+01      0.4315013477E+01
          0                 2           2             4    7     1      -0.3814455865E-02       4    7    1        -0.2064127089E+00      0.4315023209E+00
          0                 3           2             4    7     1       0.2597499783E-03       4    7    1         0.1444887454E-01      0.3020512208E-01
          0                 4           1             4    7     1      -0.1033569626E-04       4    7    1        -0.5909598922E-03      0.1235391872E-02

    ------------------------------------------------
       NWT REQUIRED            4 OUTER ITERATIONS 
       AND A TOTAL OF          7 INNER ITERATIONS.
    ------------------------------------------------

 NO OUTPUT CONTROL FOR STRESS PERIOD   48   TIME STEP   22
 
 SOLVING FOR HEAD 
                                                   Max.-Head-Change                         Max.-Flux-Residual
  Residual-Control   Outer-Iter.   Inner-Iter.     Column Row Layer    Maximum-Head-Change  Column Row Layer    Maximum-Flux-Residual          L2-NORM 
          0                 1           2             4    7     1       0.3870918792E-01       4    7    1         0.2037442467E+01      0.4268334312E+01
          0                 2           2             4    7     1      -0.3765380865E-02       4    7    1        -0.2037464437E+00      0.4268343938E+00
          0                 3           2             4    7     1       0.2564081605E-03       4    7    1         0.1426223644E-01      0.2987839718E-01
          0                 4           1             4    7     1      -0.1020272204E-04       4    7    1        -0.5833263644E-03      0.1222027689E-02

    ------------------------------------------------
       NWT REQUIRED            4 OUTER ITERATIONS 
       AND A TOTAL OF          7 INNER ITERATIONS.
    ------------------------------------------------

 NO OUTPUT CONTROL FOR STRESS PERIOD   48   TIME STEP   23
 
 SOLVING FOR HEAD 
                                                   Max.-Head-Change                         Max.-Flux-Residual
  Residual-Control   Outer-Iter.   Inner-Iter.     Column Row Layer    Maximum-Head-Change  Column Row Layer    Maximum-Flux-Residual          L2-NORM 
          0                 1           2             4    7     1       0.3821315767E-01       4    7    1         0.2011226743E+01      0.4222531041E+01
          0                 2           2             4    7     1      -0.3717129836E-02       4    7    1        -0.2011248161E+00      0.4222539965E+00
          0                 3           2             4    7     1       0.2531224526E-03       4    7    1         0.1407872295E-01      0.2955773560E-01
          0                 4           1             4    7     1      -0.1007198072E-04       4    7    1        -0.5758206662E-03      0.1208911955E-02

    ------------------------------------------------
       NWT REQUIRED            4 OUTER ITERATIONS 
       AND A TOTAL OF          7 INNER ITERATIONS.
    ------------------------------------------------

 NO OUTPUT CONTROL FOR STRESS PERIOD   48   TIME STEP   24
 
 SOLVING FOR HEAD 
                                                   Max.-Head-Change                         Max.-Flux-Residual
  Residual-Control   Outer-Iter.   Inner-Iter.     Column Row Layer    Maximum-Head-Change  Column Row Layer    Maximum-Flux-Residual          L2-NORM 
          0                 1           2             4    7     1       0.3772571963E-01       4    7    1         0.1985464724E+01      0.4177584513E+01
          0                 2           2             4    7     1      -0.3669714615E-02       4    7    1        -0.1985485605E+00      0.4177593055E+00
          0                 3           2             4    7     1       0.2498936593E-03       4    7    1         0.1389838548E-01      0.2924310807E-01
          0                 4           1             4    7     1      -0.9943503955E-05       4    7    1        -0.5684448456E-03      0.1196042848E-02

    ------------------------------------------------
       NWT REQUIRED            4 OUTER ITERATIONS 
       AND A TOTAL OF          7 INNER ITERATIONS.
    ------------------------------------------------

 NO OUTPUT CONTROL FOR STRESS PERIOD   48   TIME STEP   25
 
 SOLVING FOR HEAD 
                                                   Max.-Head-Change                         Max.-Flux-Residual
  Residual-Control   Outer-Iter.   Inner-Iter.     Column Row Layer    Maximum-Head-Change  Column Row Layer    Maximum-Flux-Residual          L2-NORM 
          0                 1           2             4    7     1       0.3724645612E-01       4    7    1         0.1960133662E+01      0.4133463480E+01
          0                 2           2             4    7     1      -0.3623094573E-02       4    7    1        -0.1960154018E+00      0.4133471604E+00
          0                 3           2             4    7     1       0.2467190148E-03       4    7    1         0.1372106478E-01      0.2893426146E-01
          0                 4           1             4    7     1      -0.9817182037E-05       4    7    1        -0.5611924178E-03      0.1183415250E-02

    ------------------------------------------------
       NWT REQUIRED            4 OUTER ITERATIONS 
       AND A TOTAL OF          7 INNER ITERATIONS.
    ------------------------------------------------

 NO OUTPUT CONTROL FOR STRESS PERIOD   48   TIME STEP   26
 
 SOLVING FOR HEAD 
                                                   Max.-Head-Change                         Max.-Flux-Residual
  Residual-Control   Outer-Iter.   Inner-Iter.     Column Row Layer    Maximum-Head-Change  Column Row Layer    Maximum-Flux-Residual          L2-NORM 
          0                 1           2             4    7     1       0.3677522093E-01       4    7    1         0.1935226429E+01      0.4090144341E+01
          0                 2           2             4    7     1      -0.3577255488E-02       4    7    1        -0.1935246274E+00      0.4090152082E+00
          0                 3           2             4    7     1       0.2435975506E-03       4    7    1         0.1354671100E-01      0.2863238188E-01
          0                 4           1             4    7     1      -0.9692975935E-05       4    7    1        -0.5540613379E-03      0.1205409573E-02

    ------------------------------------------------
       NWT REQUIRED            4 OUTER ITERATIONS 
       AND A TOTAL OF          7 INNER ITERATIONS.
    ------------------------------------------------

 NO OUTPUT CONTROL FOR STRESS PERIOD   48   TIME STEP   27
 
 SOLVING FOR HEAD 
                                                   Max.-Head-Change                         Max.-Flux-Residual
  Residual-Control   Outer-Iter.   Inner-Iter.     Column Row Layer    Maximum-Head-Change  Column Row Layer    Maximum-Flux-Residual          L2-NORM 
          0                 1           2             4    7     1       0.3631214366E-01       4    7    1         0.1910749977E+01      0.4047623902E+01
          0                 2           2             4    7     1      -0.3532209963E-02       4    7    1        -0.1910769324E+00      0.4047631255E+00
          0                 3           2             4    7     1       0.2405301241E-03       4    7    1         0.1337537272E-01      0.2833336251E-01
          0                 4           1             4    7     1      -0.9570920186E-05       4    7    1        -0.5470535857E-03      0.1158827609E-02

    ------------------------------------------------
       NWT REQUIRED            4 OUTER ITERATIONS 
       AND A TOTAL OF          7 INNER ITERATIONS.
    ------------------------------------------------

 NO OUTPUT CONTROL FOR STRESS PERIOD   48   TIME STEP   28
 
 SOLVING FOR HEAD 
                                                   Max.-Head-Change                         Max.-Flux-Residual
  Residual-Control   Outer-Iter.   Inner-Iter.     Column Row Layer    Maximum-Head-Change  Column Row Layer    Maximum-Flux-Residual          L2-NORM 
          0                 1           2             4    7     1       0.3585693914E-01       4    7    1         0.1886689228E+01      0.4005871111E+01
          0                 2           2             4    7     1      -0.3487930262E-02       4    7    1        -0.1886708090E+00      0.4005878198E+00
          0                 3           2             4    7     1       0.2375148480E-03       4    7    1         0.1320694449E-01      0.2804110134E-01
          0                 4           1             4    7     1      -0.9450939151E-05       4    7    1        -0.5401648605E-03      0.1146878193E-02

    ------------------------------------------------
       NWT REQUIRED            4 OUTER ITERATIONS 
       AND A TOTAL OF          7 INNER ITERATIONS.
    ------------------------------------------------

 NO OUTPUT CONTROL FOR STRESS PERIOD   48   TIME STEP   29
 
 SOLVING FOR HEAD 
                                                   Max.-Head-Change                         Max.-Flux-Residual
  Residual-Control   Outer-Iter.   Inner-Iter.     Column Row Layer    Maximum-Head-Change  Column Row Layer    Maximum-Flux-Residual          L2-NORM 
          0                 1           2             4    7     1       0.3540946244E-01       4    7    1         0.1863036664E+01      0.3964869799E+01
          0                 2           2             4    7     1      -0.3444402286E-02       4    7    1        -0.1863055052E+00      0.3964876316E+00
          0                 3           2             4    7     1       0.2345507607E-03       4    7    1         0.1304137361E-01      0.2775408798E-01
          0                 4           1             4    7     1      -0.9332995184E-05       4    7    1        -0.5333929837E-03      0.1159752218E-02

    ------------------------------------------------
       NWT REQUIRED            4 OUTER ITERATIONS 
       AND A TOTAL OF          7 INNER ITERATIONS.
    ------------------------------------------------

 NO OUTPUT CONTROL FOR STRESS PERIOD   48   TIME STEP   30



 STREAM LISTING     PERIOD     48   STEP       30

 LAYER ROW COL. STREAM  RCH.  FLOW INTO     FLOW TO   FLOW OUT OF   OVRLND.     DIRECT     STREAM       STREAM     STREAM     STREAM   STREAMBED  STREAMBED
                SEG.NO.  NO.  STRM. RCH.    AQUIFER    STRM. RCH.    RUNOFF     PRECIP       ET          HEAD       DEPTH      WIDTH   CONDCTNC.   GRADIENT

   1    1    1     1     1    1.9000E+01  2.1427E-01   1.8786E+01  0.000E+00  0.000E+00  0.000E+00  1.09413E+03  1.082E+00  1.166E+01  5.249E-02  1.361E+00
   1    2    2     1     2    1.8786E+01  3.3054E-01   1.8455E+01  0.000E+00  0.000E+00  0.000E+00  1.08914E+03  1.077E+00  1.158E+01  8.107E-02  1.359E+00
   1    3    3     1     3    1.8455E+01  2.8064E-01   1.8175E+01  0.000E+00  0.000E+00  0.000E+00  1.08349E+03  1.072E+00  1.149E+01  6.892E-02  1.357E+00
   1    3    4     1     4    1.8175E+01  2.5740E-01   1.7917E+01  0.000E+00  0.000E+00  0.000E+00  1.07848E+03  1.068E+00  1.140E+01  6.328E-02  1.356E+00
   1    4    5     2     1    1.5917E+01  3.0542E-01   1.5612E+01  0.000E+00  0.000E+00  0.000E+00  1.07285E+03  9.157E-01  1.200E+01  7.800E-02  1.305E+00
   1    5    6     2     2    1.5612E+01  2.3438E-01   1.5377E+01  0.000E+00  0.000E+00  0.000E+00  1.06742E+03  9.063E-01  1.200E+01  6.000E-02  1.302E+00
   1    6    6     2     3    1.5377E+01  2.3388E-01   1.5143E+01  0.000E+00  0.000E+00  0.000E+00  1.06269E+03  8.980E-01  1.200E+01  6.000E-02  1.299E+00
   1    7    6     2     4    1.5143E+01  2.3338E-01   1.4910E+01  0.000E+00  0.000E+00  0.000E+00  1.05797E+03  8.897E-01  1.200E+01  6.000E-02  1.297E+00
   1    8    6     2     5    1.4910E+01  2.3289E-01   1.4677E+01  0.000E+00  0.000E+00  0.000E+00  1.05324E+03  8.814E-01  1.200E+01  6.000E-02  1.294E+00
   1    3    5     3     1    2.0000E+00  2.8252E-01   1.7175E+00  0.000E+00  0.000E+00  0.000E+00  1.07555E+03  1.909E+00  9.636E+00  7.227E-02  1.955E+00
   1    3    6     3     2    1.7175E+00  2.4905E-01   1.4684E+00  0.000E+00  0.000E+00  0.000E+00  1.07264E+03  1.727E+00  8.909E+00  6.682E-02  1.864E+00
   1    3    7     3     3    1.4684E+00  1.9718E-01   1.2712E+00  0.000E+00  0.000E+00  0.000E+00  1.06987E+03  1.555E+00  8.218E+00  5.547E-02  1.777E+00
   1    4    8     3     4    1.2712E+00  2.2567E-01   1.0456E+00  0.000E+00  0.000E+00  0.000E+00  1.06682E+03  1.364E+00  7.455E+00  6.709E-02  1.682E+00
   1    5    8     3     5    1.0456E+00  1.5790E-01   8.8768E-01  0.000E+00  0.000E+00  0.000E+00  1.06362E+03  1.164E+00  6.655E+00  4.991E-02  1.582E+00
   1    6    8     3     6    8.8768E-01  5.5980E-02   8.3170E-01  0.000E+00  0.000E+00  0.000E+00  1.06158E+03  1.036E+00  6.145E+00  1.844E-02  1.518E+00
   1    5   10     4     1    1.0000E+01  9.0919E-02   9.9091E+00  0.000E+00  0.000E+00  0.000E+00  1.07836E+03  6.368E-01  1.000E+01  2.500E-02  1.212E+00
   1    5    9     4     2    9.9091E+00  1.8158E-01   9.7275E+00  0.000E+00  0.000E+00  0.000E+00  1.07154E+03  6.315E-01  1.000E+01  5.000E-02  1.211E+00
   1    6    8     4     3    9.7275E+00  1.2689E-01   9.6006E+00  0.000E+00  0.000E+00  0.000E+00  1.06381E+03  6.256E-01  1.000E+01  3.500E-02  1.209E+00
   1    6    8     5     1    1.0432E+01  2.2686E-01   1.0205E+01  0.000E+00  0.000E+00  0.000E+00  1.05868E+03  6.790E-01  1.542E+01  6.166E-02  1.226E+00
   1    7    7     5     2    1.0205E+01  2.7894E-01   9.9265E+00  0.000E+00  0.000E+00  0.000E+00  1.05417E+03  6.732E-01  1.519E+01  7.594E-02  1.224E+00
   1    8    7     5     3    9.9265E+00  1.9221E-01   9.7343E+00  0.000E+00  0.000E+00  0.000E+00  1.04992E+03  6.676E-01  1.497E+01  5.241E-02  1.223E+00
   1    8    6     5     4    9.7343E+00  1.3577E-01   9.5985E+00  0.000E+00  0.000E+00  0.000E+00  1.04691E+03  6.637E-01  1.482E+01  3.706E-02  1.221E+00
   1    9    6     6     1    2.4276E+01  2.5176E-01   2.4024E+01  0.000E+00  0.000E+00  0.000E+00  1.04392E+03  1.196E+00  1.200E+01  6.000E-02  1.399E+00
   1   10    7     6     2    2.4024E+01  2.5131E-01   2.3773E+01  0.000E+00  0.000E+00  0.000E+00  1.03937E+03  1.188E+00  1.200E+01  6.000E-02  1.396E+00
   1   11    7     6     3    2.3773E+01  2.5086E-01   2.3522E+01  0.000E+00  0.000E+00  0.000E+00  1.03482E+03  1.181E+00  1.200E+01  6.000E-02  1.394E+00
   1   12    7     6     4    2.3522E+01  2.5041E-01   2.3271E+01  0.000E+00  0.000E+00  0.000E+00  1.03026E+03  1.173E+00  1.200E+01  6.000E-02  1.391E+00
   1   13    7     6     5    2.3271E+01  1.2253E-02   2.3259E+01  0.000E+00  0.000E+00  0.000E+00  1.02708E+03  1.169E+00  1.200E+01  2.400E-02  1.702E-01
   1   14    9     7     1    1.5000E+02  1.3807E+00   1.4862E+02  0.000E+00  0.000E+00  0.000E+00  1.03987E+03  2.288E+00  5.529E+01  5.593E-01  8.229E-01
   1   13    8     7     2    1.4862E+02  1.9929E+00   1.4663E+02  0.000E+00  0.000E+00  0.000E+00  1.03478E+03  2.279E+00  5.525E+01  6.147E-01  1.081E+00
   1   13    7     7     3    1.4663E+02  1.7421E+00   1.4488E+02  0.000E+00  0.000E+00  0.000E+00  1.02969E+03  2.269E+00  5.521E+01  5.584E-01  1.040E+00
   1   13    6     8     1    1.6814E+02  1.1742E+00   1.6697E+02  0.000E+00  0.000E+00  0.000E+00  1.02481E+03  2.936E+00  4.258E+01  4.339E-01  9.021E-01
   1   13    5     8     2    1.6697E+02  4.1022E-01   1.6656E+02  0.000E+00  0.000E+00  0.000E+00  1.01856E+03  2.931E+00  4.250E+01  4.331E-01  3.157E-01
   1   13    4     8     3    1.6656E+02 -1.6436E+00   1.6820E+02  0.000E+00  0.000E+00  0.000E+00  1.01231E+03  2.935E+00  4.256E+01  4.337E+00 -1.263E-01
   1   13    3     8     4    1.6820E+02 -3.2666E+00   1.7147E+02  0.000E+00  0.000E+00  0.000E+00  1.00608E+03  2.951E+00  4.279E+01  4.361E+00 -2.497E-01
   1   13    2     8     5    1.7147E+02 -2.4811E+00   1.7395E+02  0.000E+00  0.000E+00  0.000E+00  9.99845E+02  2.970E+00  4.306E+01  4.388E+00 -1.885E-01
   1   13    1     8     6    1.7395E+02 -1.9567E+00   1.7591E+02  0.000E+00  0.000E+00  0.000E+00  9.94859E+02  2.984E+00  4.327E+01  2.646E+00 -2.465E-01





UNSATURATED ZONE PACKAGE VOLUMETRIC BUDGET FOR  TIME STEP    30 STRESS PERIOD   48
  ------------------------------------------------------------------------------



     CUMULATIVE VOLUMES      L**3       RATES FOR THIS TIME STEP      L**3/T
     ------------------                 ------------------------

           IN:                                      IN:
           ---                                      ---
        INFILTRATION =  2136313489.4878          INFILTRATION =           4.4075

          OUT:                                     OUT:
          ----                                     ----
              UZF ET =  1999210017.6868                UZF ET =           0.7250
        UZF RECHARGE =     1377863.0341          UZF RECHARGE =       0.0000E+00

            IN - OUT =   135725608.7670              IN - OUT =           3.6825

          STORAGE:                                 STORAGE:
          --------                                 --------
      STORAGE CHANGE =   135726526.8605        STORAGE CHANGE =           3.6825

 PERCENT DISCREPANCY IS DIFFERENCE BETWEEN IN-OUT MINUS CHANGE IN STORAGE
 DIVIDED BY THE AVERAGE OF IN AND OUT TIMES 100

 PERCENT DISCREPANCY =          -0.00     PERCENT DISCREPANCY =           0.00






1
  VOLUMETRIC BUDGET FOR AGRICULTURAL FIELDS AT TIME STEP   30, STRESS PERIOD  48
  ------------------------------------------------------------------------------

     CUMULATIVE VOLUMES      L**3       RATES FOR THIS TIME STEP      L**3/T
     ------------------                 ------------------------

           IN:                                      IN:
           ---                                      ---
               AG WELLS  =  1591428992.0000                 AG WELLS  =           0.0000
      DIVERSION SEGMENTS =           0.0000        DIVERSION SEGMENTS =           0.0000
           GW IRRIGATION =           0.0000             GW IRRIGATION =           0.0000
           SW IRRIGATION =           0.0000             SW IRRIGATION =           0.0000
        SYSTEM LOSSES GW =           0.0000          SYSTEM LOSSES GW =           0.0000
        SYSTEM LOSSES SW =           0.0000          SYSTEM LOSSES SW =           0.0000

                TOTAL IN =  1591428992.0000                  TOTAL IN =           0.0000

          OUT:                                     OUT:
          ----                                     ----
               AG WELLS  =           0.0000                 AG WELLS  =           0.0000
      DIVERSION SEGMENTS =           0.0000        DIVERSION SEGMENTS =           0.0000
           GW IRRIGATION =  1591428992.0000             GW IRRIGATION =           0.0000
           SW IRRIGATION =           0.0000             SW IRRIGATION =           0.0000
        SYSTEM LOSSES GW =           0.0000          SYSTEM LOSSES GW =           0.0000
        SYSTEM LOSSES SW =           0.0000          SYSTEM LOSSES SW =           0.0000

               TOTAL OUT =  1591428992.0000                 TOTAL OUT =           0.0000

                IN - OUT =           0.0000                  IN - OUT =           0.0000

     PERCENT DISCREPANCY =           0.00         PERCENT DISCREPANCY =           0.00



1
  VOLUMETRIC BUDGET FOR ENTIRE MODEL AT END OF TIME STEP   30, STRESS PERIOD  48
  ------------------------------------------------------------------------------

     CUMULATIVE VOLUMES      L**3       RATES FOR THIS TIME STEP      L**3/T
     ------------------                 ------------------------

           IN:                                      IN:
           ---                                      ---
             STORAGE     =  2151178752.0000               STORAGE     =           9.1302
       CONSTANT HEAD     =           0.0000         CONSTANT HEAD     =           0.0000
     HEAD DEP BOUNDS     =    35421440.0000       HEAD DEP BOUNDS     =           0.2888
      STREAM LEAKAGE     =  1515915776.0000        STREAM LEAKAGE     =          12.4409
        UZF RECHARGE     =     1377861.8750          UZF RECHARGE     =           0.0000
               GW ET     =           0.0000                 GW ET     =           0.0000
     SURFACE LEAKAGE     =           0.0000       SURFACE LEAKAGE     =           0.0000
           AG WELLS      =           0.0000             AG WELLS      =           0.0000

                TOTAL IN =  3703893760.0000                  TOTAL IN =          21.8600

          OUT:                                     OUT:
          ----                                     ----
             STORAGE     =   809633152.0000               STORAGE     =          12.2232
       CONSTANT HEAD     =           0.0000         CONSTANT HEAD     =           0.0000
     HEAD DEP BOUNDS     =    36070872.0000       HEAD DEP BOUNDS     =           0.2887
      STREAM LEAKAGE     =  1249419648.0000        STREAM LEAKAGE     =           9.3480
        UZF RECHARGE     =           0.0000          UZF RECHARGE     =           0.0000
               GW ET     =    17343536.0000                 GW ET     =           0.0000
     SURFACE LEAKAGE     =           0.0000       SURFACE LEAKAGE     =           0.0000
           AG WELLS      =  1591428992.0000             AG WELLS      =           0.0000

               TOTAL OUT =  3703896064.0000                 TOTAL OUT =          21.8600

                IN - OUT =       -2304.0000                  IN - OUT =       1.3351E-05

     PERCENT DISCREPANCY =          -0.00         PERCENT DISCREPANCY =           0.00






         TIME SUMMARY AT END OF TIME STEP   30 IN STRESS PERIOD   48
                    SECONDS     MINUTES      HOURS       DAYS        YEARS
                    -----------------------------------------------------------
   TIME STEP LENGTH  87667.      1461.1      24.352      1.0147     2.77799E-03
 STRESS PERIOD TIME 2.63000E+06  43833.      730.56      30.440     8.33397E-02
         TOTAL TIME 1.23695E+08 2.06158E+06  34360.      1431.7      3.9197    
1
1
                            STRESS PERIOD NO.   49, LENGTH =   2630000.    
                            -----------------------------------------------

                              NUMBER OF TIME STEPS =    30

                               MULTIPLIER FOR DELT =     1.000

                            INITIAL TIME STEP SIZE =   87666.66    

 REUSING NON-PARAMETER GHB CELLS FROM LAST STRESS PERIOD

      2 GHB CELLS

 REUSING STREAM SEGMENT DATA FROM LAST STRESS PERIOD



            AREAL INFILTRATION RATE
 READING ON UNIT   19 WITH FORMAT: (10F4.0)            

            1           2           3           4           5           6           7           8           9          10
 ........................................................................................................................
   1   1.2000E-09   0.000       0.000       0.000       0.000       0.000       0.000       0.000       0.000       0.000    
   2   2.1000E-09  2.0000E-09  8.0000E-10  8.5000E-09   0.000       0.000       0.000       0.000       0.000       0.000    
   3   5.0000E-10  1.1000E-09  8.8000E-09  5.5000E-09   0.000       0.000       0.000       0.000       0.000       0.000    
   4   8.5000E-09  1.1000E-09  1.1000E-09  1.1000E-09  2.0000E-09   0.000       0.000       0.000       0.000       0.000    
   5   8.5000E-09  1.1000E-09  1.1000E-09  1.1000E-09  1.1000E-09   0.000       0.000       0.000       0.000       0.000    
   6   8.5000E-09  5.2000E-09  2.1000E-09  1.1000E-09  1.5000E-09   0.000       0.000       0.000       0.000       0.000    
   7   8.5000E-09  5.2000E-09  2.1000E-09  1.2000E-09  2.0000E-09   0.000       0.000       0.000       0.000       0.000    
   8   5.0000E-10  5.2000E-09  2.1000E-09  1.2000E-09  5.0000E-09   0.000       0.000       0.000       0.000       0.000    
   9   5.0000E-10  5.2000E-09  2.1000E-09  1.2000E-09  5.0000E-09   0.000       0.000       0.000       0.000       0.000    
  10   5.0000E-10  5.2000E-09  2.1000E-09  1.2000E-09  5.8000E-09   0.000       0.000       0.000       0.000       0.000    
  11   1.0000E-10  1.1000E-09  1.1000E-09  1.2000E-09  5.0000E-09   0.000       0.000       0.000       0.000       0.000    
  12   1.1000E-09  1.1000E-09  1.1000E-09  1.1000E-09  2.0000E-09   0.000       0.000       0.000       0.000       0.000    
  13   1.1000E-09  2.2000E-09  2.2000E-09  2.1000E-09  1.0000E-09   0.000       0.000       0.000       0.000       0.000    
  14   2.0000E-10  5.5000E-09  5.5000E-09  5.2000E-09  1.0000E-09   0.000       0.000       0.000       0.000       0.000    
  15    0.000      8.8000E-09  8.8000E-09   0.000       0.000       0.000       0.000       0.000       0.000       0.000    

                  ET RATE =  5.000000E-10

 USING ET EXTINCTION DEPTH FROM PREVIOUS STRESS PERIOD. CURRENT PERIOD IS:      49

 USING EXTINCTION WATER CONTENT FROM PREVIOUS STRESS PERIOD. CURRENT PERIOD IS:      49

 USING AIR ENTRY PRESSURE FROM PREVIOUS STRESS PERIOD. CURRENT PERIOD IS:      49

 USING ROOT PRESSURE HEAD FROM PREVIOUS STRESS PERIOD. CURRENT PERIOD IS:      49

 USING ROOT ACTIVITY FROM PREVIOUS STRESS PERIOD. CURRENT PERIOD IS:      49

 PROCESSING AG STRESS PERIOD DATA

 READING AG STRESS PERIOD DATA

 READING IRRIGATION WELL

 END PROCESSING AG STRESS PERIOD DATA OPTIONS
 
 SOLVING FOR HEAD 
                                                   Max.-Head-Change                         Max.-Flux-Residual
  Residual-Control   Outer-Iter.   Inner-Iter.     Column Row Layer    Maximum-Head-Change  Column Row Layer    Maximum-Flux-Residual          L2-NORM 
          0                 1           2             4    7     1       0.3496956639E-01       4    7    1         0.1839784768E+01      0.3924589661E+01
          0                 2           2             4    7     1      -0.3401611718E-02       4    7    1        -0.1839802696E+00      0.3924595932E+00
          0                 3           2             4    7     1       0.2316368885E-03       4    7    1         0.1287860747E-01      0.2747212786E-01
          0                 4           1             4    7     1      -0.9217050063E-05       4    7    1        -0.5267358613E-03      0.1123609284E-02

    ------------------------------------------------
       NWT REQUIRED            4 OUTER ITERATIONS 
       AND A TOTAL OF          7 INNER ITERATIONS.
    ------------------------------------------------

 NO OUTPUT CONTROL FOR STRESS PERIOD   49   TIME STEP    1
 
 SOLVING FOR HEAD 
                                                   Max.-Head-Change                         Max.-Flux-Residual
  Residual-Control   Outer-Iter.   Inner-Iter.     Column Row Layer    Maximum-Head-Change  Column Row Layer    Maximum-Flux-Residual          L2-NORM 
          0                 1           2             4    7     1       0.3453724439E-01       4    7    1         0.1816933181E+01      0.3885029370E+01
          0                 2           2             4    7     1      -0.3359557915E-02       4    7    1        -0.1816950660E+00      0.3885035434E+00
          0                 3           2             4    7     1       0.2287731871E-03       4    7    1         0.1271864359E-01      0.2719520984E-01
          0                 4           1             4    7     1      -0.9103100448E-05       4    7    1        -0.5201933279E-03      0.1112280056E-02

    ------------------------------------------------
       NWT REQUIRED            4 OUTER ITERATIONS 
       AND A TOTAL OF          7 INNER ITERATIONS.
    ------------------------------------------------

 NO OUTPUT CONTROL FOR STRESS PERIOD   49   TIME STEP    2
 
 SOLVING FOR HEAD 
                                                   Max.-Head-Change                         Max.-Flux-Residual
  Residual-Control   Outer-Iter.   Inner-Iter.     Column Row Layer    Maximum-Head-Change  Column Row Layer    Maximum-Flux-Residual          L2-NORM 
          0                 1           2             4    7     1       0.3411235075E-01       4    7    1         0.1794474291E+01      0.3846168387E+01
          0                 2           2             4    7     1      -0.3318226709E-02       4    7    1        -0.1794491334E+00      0.3846174077E+00
          0                 3           2             4    7     1       0.2259586914E-03       4    7    1         0.1256142864E-01      0.2692317179E-01
          0                 4           1             4    7     1      -0.8991109154E-05       4    7    1        -0.5137632268E-03      0.1101156038E-02

    ------------------------------------------------
       NWT REQUIRED            4 OUTER ITERATIONS 
       AND A TOTAL OF          7 INNER ITERATIONS.
    ------------------------------------------------

 NO OUTPUT CONTROL FOR STRESS PERIOD   49   TIME STEP    3
 
 SOLVING FOR HEAD 
                                                   Max.-Head-Change                         Max.-Flux-Residual
  Residual-Control   Outer-Iter.   Inner-Iter.     Column Row Layer    Maximum-Head-Change  Column Row Layer    Maximum-Flux-Residual          L2-NORM 
          0                 1           2             4    7     1       0.3369460562E-01       4    7    1         0.1772393276E+01      0.3807981638E+01
          0                 2           2             4    7     1      -0.3277590872E-02       4    7    1        -0.1772409894E+00      0.3807986943E+00
          0                 3           2             4    7     1       0.2231915475E-03       4    7    1         0.1240685888E-01      0.2665585735E-01
          0                 4           1             4    7     1      -0.8881001922E-05       4    7    1        -0.5074413173E-03      0.1090220941E-02

    ------------------------------------------------
       NWT REQUIRED            4 OUTER ITERATIONS 
       AND A TOTAL OF          7 INNER ITERATIONS.
    ------------------------------------------------

 NO OUTPUT CONTROL FOR STRESS PERIOD   49   TIME STEP    4
 
 SOLVING FOR HEAD 
                                                   Max.-Head-Change                         Max.-Flux-Residual
  Residual-Control   Outer-Iter.   Inner-Iter.     Column Row Layer    Maximum-Head-Change  Column Row Layer    Maximum-Flux-Residual          L2-NORM 
          0                 1           2             4    7     1       0.3328400362E-01       4    7    1         0.1750690165E+01      0.3770459025E+01
          0                 2           2             4    7     1      -0.3237649885E-02       4    7    1        -0.1750706368E+00      0.3770463994E+00
          0                 3           2             4    7     1       0.2204717202E-03       4    7    1         0.1225493454E-01      0.2639321037E-01
          0                 4           1             4    7     1      -0.8772777143E-05       4    7    1        -0.5012275847E-03      0.1079493763E-02

    ------------------------------------------------
       NWT REQUIRED            4 OUTER ITERATIONS 
       AND A TOTAL OF          7 INNER ITERATIONS.
    ------------------------------------------------

 NO OUTPUT CONTROL FOR STRESS PERIOD   49   TIME STEP    5
 
 SOLVING FOR HEAD 
                                                   Max.-Head-Change                         Max.-Flux-Residual
  Residual-Control   Outer-Iter.   Inner-Iter.     Column Row Layer    Maximum-Head-Change  Column Row Layer    Maximum-Flux-Residual          L2-NORM 
          0                 1           2             4    7     1       0.3288027138E-01       4    7    1         0.1729350138E+01      0.3733583537E+01
          0                 2           2             4    7     1      -0.3198377154E-02       4    7    1        -0.1729365939E+00      0.3733588134E+00
          0                 3           2             4    7     1       0.2177973991E-03       4    7    1         0.1210555188E-01      0.2613506404E-01
          0                 4           1             4    7     1      -0.8666363435E-05       4    7    1        -0.4951178271E-03      0.1068920008E-02

    ------------------------------------------------
       NWT REQUIRED            4 OUTER ITERATIONS 
       AND A TOTAL OF          7 INNER ITERATIONS.
    ------------------------------------------------

 NO OUTPUT CONTROL FOR STRESS PERIOD   49   TIME STEP    6
 
 SOLVING FOR HEAD 
                                                   Max.-Head-Change                         Max.-Flux-Residual
  Residual-Control   Outer-Iter.   Inner-Iter.     Column Row Layer    Maximum-Head-Change  Column Row Layer    Maximum-Flux-Residual          L2-NORM 
          0                 1           2             4    7     1       0.3248354336E-01       4    7    1         0.1708380836E+01      0.3697347483E+01
          0                 2           2             4    7     1      -0.3159785757E-02       4    7    1        -0.1708396244E+00      0.3697351819E+00
          0                 3           2             4    7     1       0.2151694735E-03       4    7    1         0.1195876430E-01      0.2588140907E-01
          0                 4           1             4    7     1      -0.8561796144E-05       4    7    1        -0.4891142153E-03      0.1058548743E-02

    ------------------------------------------------
       NWT REQUIRED            4 OUTER ITERATIONS 
       AND A TOTAL OF          7 INNER ITERATIONS.
    ------------------------------------------------

 NO OUTPUT CONTROL FOR STRESS PERIOD   49   TIME STEP    7
 
 SOLVING FOR HEAD 
                                                   Max.-Head-Change                         Max.-Flux-Residual
  Residual-Control   Outer-Iter.   Inner-Iter.     Column Row Layer    Maximum-Head-Change  Column Row Layer    Maximum-Flux-Residual          L2-NORM 
          0                 1           2             4    7     1       0.3209354056E-01       4    7    1         0.1687767416E+01      0.3661722763E+01
          0                 2           2             4    7     1      -0.3121848559E-02       4    7    1        -0.1687782443E+00      0.3661726644E+00
          0                 3           2             4    7     1       0.2125860963E-03       4    7    1         0.1181446799E-01      0.2563203780E-01
          0                 4           1             4    7     1      -0.8459000782E-05       4    7    1        -0.4832124841E-03      0.1048355052E-02

    ------------------------------------------------
       NWT REQUIRED            4 OUTER ITERATIONS 
       AND A TOTAL OF          7 INNER ITERATIONS.
    ------------------------------------------------

 NO OUTPUT CONTROL FOR STRESS PERIOD   49   TIME STEP    8
 
 SOLVING FOR HEAD 
                                                   Max.-Head-Change                         Max.-Flux-Residual
  Residual-Control   Outer-Iter.   Inner-Iter.     Column Row Layer    Maximum-Head-Change  Column Row Layer    Maximum-Flux-Residual          L2-NORM 
          0                 1           2             4    7     1       0.3171013160E-01       4    7    1         0.1667502685E+01      0.3626707979E+01
          0                 2           2             4    7     1      -0.3084552774E-02       4    7    1        -0.1667517340E+00      0.3626711904E+00
          0                 3           2             4    7     1       0.2100463969E-03       4    7    1         0.1167261255E-01      0.2538694878E-01
          0                 4           1             4    7     1      -0.8357943732E-05       4    7    1        -0.4774105821E-03      0.1038326727E-02

    ------------------------------------------------
       NWT REQUIRED            4 OUTER ITERATIONS 
       AND A TOTAL OF          7 INNER ITERATIONS.
    ------------------------------------------------

 NO OUTPUT CONTROL FOR STRESS PERIOD   49   TIME STEP    9
 
 SOLVING FOR HEAD 
                                                   Max.-Head-Change                         Max.-Flux-Residual
  Residual-Control   Outer-Iter.   Inner-Iter.     Column Row Layer    Maximum-Head-Change  Column Row Layer    Maximum-Flux-Residual          L2-NORM 
          0                 1           2             4    7     1       0.3133317949E-01       4    7    1         0.1647579829E+01      0.3592273070E+01
          0                 2           2             4    7     1      -0.3047885080E-02       4    7    1        -0.1647594122E+00      0.3592276416E+00
          0                 3           2             4    7     1       0.2075494682E-03       4    7    1         0.1153315031E-01      0.2514588279E-01
          0                 4           1             4    7     1      -0.8258588728E-05       4    7    1        -0.4717065754E-03      0.1028465529E-02

    ------------------------------------------------
       NWT REQUIRED            4 OUTER ITERATIONS 
       AND A TOTAL OF          7 INNER ITERATIONS.
    ------------------------------------------------

 NO OUTPUT CONTROL FOR STRESS PERIOD   49   TIME STEP   10
 
 SOLVING FOR HEAD 
                                                   Max.-Head-Change                         Max.-Flux-Residual
  Residual-Control   Outer-Iter.   Inner-Iter.     Column Row Layer    Maximum-Head-Change  Column Row Layer    Maximum-Flux-Residual          L2-NORM 
          0                 1           2             4    7     1       0.3096268937E-01       4    7    1         0.1627999021E+01      0.3558423702E+01
          0                 2           2             4    7     1      -0.3011845976E-02       4    7    1        -0.1628012962E+00      0.3558426942E+00
          0                 3           2             4    7     1       0.2050953437E-03       4    7    1         0.1139608247E-01      0.2490894184E-01
          0                 4           1             4    7     1      -0.8160936691E-05       4    7    1        -0.4661004755E-03      0.1018775037E-02

    ------------------------------------------------
       NWT REQUIRED            4 OUTER ITERATIONS 
       AND A TOTAL OF          7 INNER ITERATIONS.
    ------------------------------------------------

 NO OUTPUT CONTROL FOR STRESS PERIOD   49   TIME STEP   11
 
 SOLVING FOR HEAD 
                                                   Max.-Head-Change                         Max.-Flux-Residual
  Residual-Control   Outer-Iter.   Inner-Iter.     Column Row Layer    Maximum-Head-Change  Column Row Layer    Maximum-Flux-Residual          L2-NORM 
          0                 1           2             4    7     1       0.3059839329E-01       4    7    1         0.1608745980E+01      0.3525134239E+01
          0                 2           2             4    7     1      -0.2976408446E-02       4    7    1        -0.1608759578E+00      0.3524576245E+00
          0                 3           2             4    7     1       0.2026821841E-03       4    7    1         0.1126130903E-01      0.2467198585E-01
          0                 4           1             4    7     1      -0.8064914747E-05       4    7    1        -0.4605882432E-03      0.1009083775E-02

    ------------------------------------------------
       NWT REQUIRED            4 OUTER ITERATIONS 
       AND A TOTAL OF          7 INNER ITERATIONS.
    ------------------------------------------------

 NO OUTPUT CONTROL FOR STRESS PERIOD   49   TIME STEP   12
 
 SOLVING FOR HEAD 
                                                   Max.-Head-Change                         Max.-Flux-Residual
  Residual-Control   Outer-Iter.   Inner-Iter.     Column Row Layer    Maximum-Head-Change  Column Row Layer    Maximum-Flux-Residual          L2-NORM 
          0                 1           2             4    7     1       0.3024030229E-01       4    7    1         0.1589821411E+01      0.3492445803E+01
          0                 2           2             4    7     1      -0.2941576417E-02       4    7    1        -0.1589834677E+00      0.3492448704E+00
          0                 3           2             4    7     1       0.2003102569E-03       4    7    1         0.1112883499E-01      0.2444710290E-01
          0                 4           1             4    7     1      -0.7970533485E-05       4    7    1        -0.4551700401E-03      0.9999072853E-03

    ------------------------------------------------
       NWT REQUIRED            4 OUTER ITERATIONS 
       AND A TOTAL OF          7 INNER ITERATIONS.
    ------------------------------------------------

 NO OUTPUT CONTROL FOR STRESS PERIOD   49   TIME STEP   13
 
 SOLVING FOR HEAD 
                                                   Max.-Head-Change                         Max.-Flux-Residual
  Residual-Control   Outer-Iter.   Inner-Iter.     Column Row Layer    Maximum-Head-Change  Column Row Layer    Maximum-Flux-Residual          L2-NORM 
          0                 1           2             4    7     1       0.2988814890E-01       4    7    1         0.1571211187E+01      0.3460309487E+01
          0                 2           2             4    7     1      -0.2907321017E-02       4    7    1        -0.1571224128E+00      0.3460312131E+00
          0                 3           2             4    7     1       0.1979775962E-03       4    7    1         0.1099856141E-01      0.2422212952E-01
          0                 4           1             4    7     1      -0.7877714966E-05       4    7    1        -0.4498418475E-03      0.9906810801E-03

    ------------------------------------------------
       NWT REQUIRED            4 OUTER ITERATIONS 
       AND A TOTAL OF          7 INNER ITERATIONS.
    ------------------------------------------------

 NO OUTPUT CONTROL FOR STRESS PERIOD   49   TIME STEP   14
 
 SOLVING FOR HEAD 
                                                   Max.-Head-Change                         Max.-Flux-Residual
  Residual-Control   Outer-Iter.   Inner-Iter.     Column Row Layer    Maximum-Head-Change  Column Row Layer    Maximum-Flux-Residual          L2-NORM 
          0                 1           2             4    7     1       0.2954195120E-01       4    7    1         0.1552916141E+01      0.3428707095E+01
          0                 2           2             4    7     1      -0.2873644955E-02       4    7    1        -0.1552928767E+00      0.3428709642E+00
          0                 3           2             4    7     1       0.1956843855E-03       4    7    1         0.1087049412E-01      0.2400091658E-01
          0                 4           1             4    7     1      -0.7786465636E-05       4    7    1        -0.4446038774E-03      0.9816385249E-03

    ------------------------------------------------
       NWT REQUIRED            4 OUTER ITERATIONS 
       AND A TOTAL OF          7 INNER ITERATIONS.
    ------------------------------------------------

 NO OUTPUT CONTROL FOR STRESS PERIOD   49   TIME STEP   15
 
 SOLVING FOR HEAD 
                                                   Max.-Head-Change                         Max.-Flux-Residual
  Residual-Control   Outer-Iter.   Inner-Iter.     Column Row Layer    Maximum-Head-Change  Column Row Layer    Maximum-Flux-Residual          L2-NORM 
          0                 1           2             4    7     1       0.2920158066E-01       4    7    1         0.1534929886E+01      0.3397611180E+01
          0                 2           2             4    7     1      -0.2840535731E-02       4    7    1        -0.1534942204E+00      0.3397613426E+00
          0                 3           2             4    7     1       0.1934297745E-03       4    7    1         0.1074458841E-01      0.2378324535E-01
          0                 4           1             4    7     1      -0.7696752683E-05       4    7    1        -0.4394543350E-03      0.9727319835E-03

    ------------------------------------------------
       NWT REQUIRED            4 OUTER ITERATIONS 
       AND A TOTAL OF          7 INNER ITERATIONS.
    ------------------------------------------------

 NO OUTPUT CONTROL FOR STRESS PERIOD   49   TIME STEP   16
 
 SOLVING FOR HEAD 
                                                   Max.-Head-Change                         Max.-Flux-Residual
  Residual-Control   Outer-Iter.   Inner-Iter.     Column Row Layer    Maximum-Head-Change  Column Row Layer    Maximum-Flux-Residual          L2-NORM 
          0                 1           2             4    7     1       0.2886691886E-01       4    7    1         0.1517245757E+01      0.3367023395E+01
          0                 2           2             4    7     1      -0.2807981823E-02       4    7    1        -0.1517257777E+00      0.3367025336E+00
          0                 3           2             4    7     1       0.1912129782E-03       4    7    1         0.1062079765E-01      0.2356912596E-01
          0                 4           1             4    7     1      -0.7608543988E-05       4    7    1        -0.4343912619E-03      0.9639731929E-03

    ------------------------------------------------
       NWT REQUIRED            4 OUTER ITERATIONS 
       AND A TOTAL OF          7 INNER ITERATIONS.
    ------------------------------------------------

 NO OUTPUT CONTROL FOR STRESS PERIOD   49   TIME STEP   17
 
 SOLVING FOR HEAD 
                                                   Max.-Head-Change                         Max.-Flux-Residual
  Residual-Control   Outer-Iter.   Inner-Iter.     Column Row Layer    Maximum-Head-Change  Column Row Layer    Maximum-Flux-Residual          L2-NORM 
          0                 1           2             4    7     1       0.2853784290E-01       4    7    1         0.1499857615E+01      0.3336926625E+01
          0                 2           2             4    7     1      -0.2775971277E-02       4    7    1        -0.1499869344E+00      0.3336928312E+00
          0                 3           2             4    7     1       0.1890331830E-03       4    7    1         0.1049907885E-01      0.2335844193E-01
          0                 4           1             4    7     1      -0.7521807890E-05       4    7    1        -0.4294129599E-03      0.9553547755E-03

    ------------------------------------------------
       NWT REQUIRED            4 OUTER ITERATIONS 
       AND A TOTAL OF          7 INNER ITERATIONS.
    ------------------------------------------------

 NO OUTPUT CONTROL FOR STRESS PERIOD   49   TIME STEP   18
 
 SOLVING FOR HEAD 
                                                   Max.-Head-Change                         Max.-Flux-Residual
  Residual-Control   Outer-Iter.   Inner-Iter.     Column Row Layer    Maximum-Head-Change  Column Row Layer    Maximum-Flux-Residual          L2-NORM 
          0                 1           2             4    7     1       0.2821423885E-01       4    7    1         0.1482759087E+01      0.3307307074E+01
          0                 2           2             4    7     1      -0.2744493010E-02       4    7    1        -0.1482770533E+00      0.3307308582E+00
          0                 3           2             4    7     1       0.1868896338E-03       4    7    1         0.1037938739E-01      0.2315110575E-01
          0                 4           1             4    7     1      -0.7436514226E-05       4    7    1        -0.4245175794E-03      0.9468737627E-03

    ------------------------------------------------
       NWT REQUIRED            4 OUTER ITERATIONS 
       AND A TOTAL OF          7 INNER ITERATIONS.
    ------------------------------------------------

 NO OUTPUT CONTROL FOR STRESS PERIOD   49   TIME STEP   19
 
 SOLVING FOR HEAD 
                                                   Max.-Head-Change                         Max.-Flux-Residual
  Residual-Control   Outer-Iter.   Inner-Iter.     Column Row Layer    Maximum-Head-Change  Column Row Layer    Maximum-Flux-Residual          L2-NORM 
          0                 1           2             4    7     1       0.2789612688E-01       4    7    1         0.1465951545E+01      0.3278165264E+01
          0                 2           2             4    7     1      -0.2713548985E-02       4    7    1        -0.1465962715E+00      0.3278166517E+00
          0                 3           2             4    7     1       0.1847824644E-03       4    7    1         0.1026173287E-01      0.2294710846E-01
          0                 4           1             4    7     1      -0.7352667716E-05       4    7    1        -0.4197054973E-03      0.9385299860E-03

    ------------------------------------------------
       NWT REQUIRED            4 OUTER ITERATIONS 
       AND A TOTAL OF          7 INNER ITERATIONS.
    ------------------------------------------------

 NO OUTPUT CONTROL FOR STRESS PERIOD   49   TIME STEP   20
 
 SOLVING FOR HEAD 
                                                   Max.-Head-Change                         Max.-Flux-Residual
  Residual-Control   Outer-Iter.   Inner-Iter.     Column Row Layer    Maximum-Head-Change  Column Row Layer    Maximum-Flux-Residual          L2-NORM 
          0                 1           2             4    7     1       0.2758311722E-01       4    7    1         0.1449414201E+01      0.3249473634E+01
          0                 2           2             4    7     1      -0.2683101285E-02       4    7    1        -0.1449425103E+00      0.3249474662E+00
          0                 3           2             4    7     1       0.1827090929E-03       4    7    1         0.1014596979E-01      0.2274628235E-01
          0                 4           1             4    7     1      -0.7270166471E-05       4    7    1        -0.4149707852E-03      0.9303394500E-03

    ------------------------------------------------
       NWT REQUIRED            4 OUTER ITERATIONS 
       AND A TOTAL OF          7 INNER ITERATIONS.
    ------------------------------------------------

 NO OUTPUT CONTROL FOR STRESS PERIOD   49   TIME STEP   21
 
 SOLVING FOR HEAD 
                                                   Max.-Head-Change                         Max.-Flux-Residual
  Residual-Control   Outer-Iter.   Inner-Iter.     Column Row Layer    Maximum-Head-Change  Column Row Layer    Maximum-Flux-Residual          L2-NORM 
          0                 1           2             4    7     1       0.2727537533E-01       4    7    1         0.1433155956E+01      0.3221239081E+01
          0                 2           2             4    7     1      -0.2653166006E-02       4    7    1        -0.1433166598E+00      0.3221239717E+00
          0                 3           2             4    7     1       0.1806706151E-03       4    7    1         0.1003216045E-01      0.2254861783E-01
          0                 4           1             4    7     1      -0.7189053896E-05       4    7    1        -0.4103159849E-03      0.9222426820E-03

    ------------------------------------------------
       NWT REQUIRED            4 OUTER ITERATIONS 
       AND A TOTAL OF          7 INNER ITERATIONS.
    ------------------------------------------------

 NO OUTPUT CONTROL FOR STRESS PERIOD   49   TIME STEP   22
 
 SOLVING FOR HEAD 
                                                   Max.-Head-Change                         Max.-Flux-Residual
  Residual-Control   Outer-Iter.   Inner-Iter.     Column Row Layer    Maximum-Head-Change  Column Row Layer    Maximum-Flux-Residual          L2-NORM 
          0                 1           2             4    7     1       0.2697265110E-01       4    7    1         0.1417163557E+01      0.3193439295E+01
          0                 2           2             4    7     1      -0.2623718819E-02       4    7    1        -0.1417173945E+00      0.3193439942E+00
          0                 3           2             4    7     1       0.1786653744E-03       4    7    1         0.9920212077E-02      0.2235402947E-01
          0                 4           1             4    7     1      -0.7109262871E-05       4    7    1        -0.4057372737E-03      0.9142790301E-03

    ------------------------------------------------
       NWT REQUIRED            4 OUTER ITERATIONS 
       AND A TOTAL OF          7 INNER ITERATIONS.
    ------------------------------------------------

 NO OUTPUT CONTROL FOR STRESS PERIOD   49   TIME STEP   23
 
 SOLVING FOR HEAD 
                                                   Max.-Head-Change                         Max.-Flux-Residual
  Residual-Control   Outer-Iter.   Inner-Iter.     Column Row Layer    Maximum-Head-Change  Column Row Layer    Maximum-Flux-Residual          L2-NORM 
          0                 1           2             4    7     1       0.2667497779E-01       4    7    1         0.1401438593E+01      0.3166076820E+01
          0                 2           2             4    7     1      -0.2594762958E-02       4    7    1        -0.1401448734E+00      0.3166077100E+00
          0                 3           2             4    7     1       0.1766935912E-03       4    7    1         0.9810135775E-02      0.2216248270E-01
          0                 4           1             4    7     1      -0.7030803987E-05       4    7    1        -0.4012351594E-03      0.9064462110E-03

    ------------------------------------------------
       NWT REQUIRED            4 OUTER ITERATIONS 
       AND A TOTAL OF          7 INNER ITERATIONS.
    ------------------------------------------------

 NO OUTPUT CONTROL FOR STRESS PERIOD   49   TIME STEP   24
 
 SOLVING FOR HEAD 
                                                   Max.-Head-Change                         Max.-Flux-Residual
  Residual-Control   Outer-Iter.   Inner-Iter.     Column Row Layer    Maximum-Head-Change  Column Row Layer    Maximum-Flux-Residual          L2-NORM 
          0                 1           2             4    7     1       0.2638211203E-01       4    7    1         0.1385968230E+01      0.3139136404E+01
          0                 2           2             4    7     1      -0.2566274753E-02       4    7    1        -0.1385978130E+00      0.3139136489E+00
          0                 3           2             4    7     1       0.1747536538E-03       4    7    1         0.9701841744E-02      0.2197388997E-01
          0                 4           1             4    7     1      -0.6953612197E-05       4    7    1        -0.3968059223E-03      0.8987299674E-03

    ------------------------------------------------
       NWT REQUIRED            4 OUTER ITERATIONS 
       AND A TOTAL OF          7 INNER ITERATIONS.
    ------------------------------------------------

 NO OUTPUT CONTROL FOR STRESS PERIOD   49   TIME STEP   25
 
 SOLVING FOR HEAD 
                                                   Max.-Head-Change                         Max.-Flux-Residual
  Residual-Control   Outer-Iter.   Inner-Iter.     Column Row Layer    Maximum-Head-Change  Column Row Layer    Maximum-Flux-Residual          L2-NORM 
          0                 1           2             4    7     1       0.2609408177E-01       4    7    1         0.1370754409E+01      0.3112601070E+01
          0                 2           2             4    7     1      -0.2538256918E-02       4    7    1        -0.1370764076E+00      0.3112600964E+00
          0                 3           2             4    7     1       0.1728457463E-03       4    7    1         0.9595343537E-02      0.2178814776E-01
          0                 4           1             4    7     1      -0.6877694755E-05       4    7    1        -0.3924501334E-03      0.8911302180E-03

    ------------------------------------------------
       NWT REQUIRED            4 OUTER ITERATIONS 
       AND A TOTAL OF          7 INNER ITERATIONS.
    ------------------------------------------------

 NO OUTPUT CONTROL FOR STRESS PERIOD   49   TIME STEP   26
 
 SOLVING FOR HEAD 
                                                   Max.-Head-Change                         Max.-Flux-Residual
  Residual-Control   Outer-Iter.   Inner-Iter.     Column Row Layer    Maximum-Head-Change  Column Row Layer    Maximum-Flux-Residual          L2-NORM 
          0                 1           2             4    7     1       0.2581078948E-01       4    7    1         0.1355791299E+01      0.3086484392E+01
          0                 2           2             4    7     1      -0.2510699967E-02       4    7    1        -0.1355800738E+00      0.3086484108E+00
          0                 3           2             4    7     1       0.1709692232E-03       4    7    1         0.9490600339E-02      0.2160533137E-01
          0                 4           1             4    7     1      -0.6803025986E-05       4    7    1        -0.3881661264E-03      0.8836603820E-03

    ------------------------------------------------
       NWT REQUIRED            4 OUTER ITERATIONS 
       AND A TOTAL OF          7 INNER ITERATIONS.
    ------------------------------------------------

 NO OUTPUT CONTROL FOR STRESS PERIOD   49   TIME STEP   27
 
 SOLVING FOR HEAD 
                                                   Max.-Head-Change                         Max.-Flux-Residual
  Residual-Control   Outer-Iter.   Inner-Iter.     Column Row Layer    Maximum-Head-Change  Column Row Layer    Maximum-Flux-Residual          L2-NORM 
          0                 1           2             4    7     1       0.2553199415E-01       4    7    1         0.1341066563E+01      0.3060751369E+01
          0                 2           2             4    7     1      -0.2483581155E-02       4    7    1        -0.1341075781E+00      0.3061199379E+00
          0                 3           2             4    7     1       0.1691225362E-03       4    7    1         0.9387525807E-02      0.2142833482E-01
          0                 4           1             4    7     1      -0.6729544759E-05       4    7    1        -0.3839503813E-03      0.8764119865E-03

    ------------------------------------------------
       NWT REQUIRED            4 OUTER ITERATIONS 
       AND A TOTAL OF          7 INNER ITERATIONS.
    ------------------------------------------------

 NO OUTPUT CONTROL FOR STRESS PERIOD   49   TIME STEP   28
 
 SOLVING FOR HEAD 
                                                   Max.-Head-Change                         Max.-Flux-Residual
  Residual-Control   Outer-Iter.   Inner-Iter.     Column Row Layer    Maximum-Head-Change  Column Row Layer    Maximum-Flux-Residual          L2-NORM 
          0                 1           2             4    7     1       0.2525787067E-01       4    7    1         0.1326589511E+01      0.3035381048E+01
          0                 2           2             4    7     1      -0.2456915400E-02       4    7    1        -0.1326598513E+00      0.3035380566E+00
          0                 3           2             4    7     1       0.1673067002E-03       4    7    1         0.9286185091E-02      0.2124760761E-01
          0                 4           1             4    7     1      -0.6657290793E-05       4    7    1        -0.3798055402E-03      0.8690257689E-03

    ------------------------------------------------
       NWT REQUIRED            4 OUTER ITERATIONS 
       AND A TOTAL OF          7 INNER ITERATIONS.
    ------------------------------------------------

 NO OUTPUT CONTROL FOR STRESS PERIOD   49   TIME STEP   29
 
 SOLVING FOR HEAD 
                                                   Max.-Head-Change                         Max.-Flux-Residual
  Residual-Control   Outer-Iter.   Inner-Iter.     Column Row Layer    Maximum-Head-Change  Column Row Layer    Maximum-Flux-Residual          L2-NORM 
          0                 1           2             4    7     1       0.2498804693E-01       4    7    1         0.1312340197E+01      0.3010371554E+01
          0                 2           2             4    7     1      -0.2430668598E-02       4    7    1        -0.1312348990E+00      0.3010370884E+00
          0                 3           2             4    7     1       0.1655193933E-03       4    7    1         0.9186438581E-02      0.2107250112E-01
          0                 4           1             4    7     1      -0.6586172329E-05       4    7    1        -0.3757259053E-03      0.8620472855E-03

    ------------------------------------------------
       NWT REQUIRED            4 OUTER ITERATIONS 
       AND A TOTAL OF          7 INNER ITERATIONS.
    ------------------------------------------------

 NO OUTPUT CONTROL FOR STRESS PERIOD   49   TIME STEP   30



 STREAM LISTING     PERIOD     49   STEP       30

 LAYER ROW COL. STREAM  RCH.  FLOW INTO     FLOW TO   FLOW OUT OF   OVRLND.     DIRECT     STREAM       STREAM     STREAM     STREAM   STREAMBED  STREAMBED
                SEG.NO.  NO.  STRM. RCH.    AQUIFER    STRM. RCH.    RUNOFF     PRECIP       ET          HEAD       DEPTH      WIDTH   CONDCTNC.   GRADIENT

   1    1    1     1     1    1.9000E+01  2.1427E-01   1.8786E+01  0.000E+00  0.000E+00  0.000E+00  1.09413E+03  1.082E+00  1.166E+01  5.249E-02  1.361E+00
   1    2    2     1     2    1.8786E+01  3.3054E-01   1.8455E+01  0.000E+00  0.000E+00  0.000E+00  1.08914E+03  1.077E+00  1.158E+01  8.107E-02  1.359E+00
   1    3    3     1     3    1.8455E+01  2.8064E-01   1.8175E+01  0.000E+00  0.000E+00  0.000E+00  1.08349E+03  1.072E+00  1.149E+01  6.892E-02  1.357E+00
   1    3    4     1     4    1.8175E+01  2.5740E-01   1.7917E+01  0.000E+00  0.000E+00  0.000E+00  1.07848E+03  1.068E+00  1.140E+01  6.328E-02  1.356E+00
   1    4    5     2     1    1.5917E+01  3.0542E-01   1.5612E+01  0.000E+00  0.000E+00  0.000E+00  1.07285E+03  9.157E-01  1.200E+01  7.800E-02  1.305E+00
   1    5    6     2     2    1.5612E+01  2.3438E-01   1.5377E+01  0.000E+00  0.000E+00  0.000E+00  1.06742E+03  9.063E-01  1.200E+01  6.000E-02  1.302E+00
   1    6    6     2     3    1.5377E+01  2.3388E-01   1.5143E+01  0.000E+00  0.000E+00  0.000E+00  1.06269E+03  8.980E-01  1.200E+01  6.000E-02  1.299E+00
   1    7    6     2     4    1.5143E+01  2.3338E-01   1.4910E+01  0.000E+00  0.000E+00  0.000E+00  1.05797E+03  8.897E-01  1.200E+01  6.000E-02  1.297E+00
   1    8    6     2     5    1.4910E+01  2.3289E-01   1.4677E+01  0.000E+00  0.000E+00  0.000E+00  1.05324E+03  8.814E-01  1.200E+01  6.000E-02  1.294E+00
   1    3    5     3     1    2.0000E+00  2.8252E-01   1.7175E+00  0.000E+00  0.000E+00  0.000E+00  1.07555E+03  1.909E+00  9.636E+00  7.227E-02  1.955E+00
   1    3    6     3     2    1.7175E+00  2.4905E-01   1.4684E+00  0.000E+00  0.000E+00  0.000E+00  1.07264E+03  1.727E+00  8.909E+00  6.682E-02  1.864E+00
   1    3    7     3     3    1.4684E+00  1.9718E-01   1.2712E+00  0.000E+00  0.000E+00  0.000E+00  1.06987E+03  1.555E+00  8.218E+00  5.547E-02  1.777E+00
   1    4    8     3     4    1.2712E+00  2.2567E-01   1.0456E+00  0.000E+00  0.000E+00  0.000E+00  1.06682E+03  1.364E+00  7.455E+00  6.709E-02  1.682E+00
   1    5    8     3     5    1.0456E+00  1.5790E-01   8.8768E-01  0.000E+00  0.000E+00  0.000E+00  1.06362E+03  1.164E+00  6.655E+00  4.991E-02  1.582E+00
   1    6    8     3     6    8.8768E-01  5.5980E-02   8.3170E-01  0.000E+00  0.000E+00  0.000E+00  1.06158E+03  1.036E+00  6.145E+00  1.844E-02  1.518E+00
   1    5   10     4     1    1.0000E+01  9.0919E-02   9.9091E+00  0.000E+00  0.000E+00  0.000E+00  1.07836E+03  6.368E-01  1.000E+01  2.500E-02  1.212E+00
   1    5    9     4     2    9.9091E+00  1.8158E-01   9.7275E+00  0.000E+00  0.000E+00  0.000E+00  1.07154E+03  6.315E-01  1.000E+01  5.000E-02  1.211E+00
   1    6    8     4     3    9.7275E+00  1.2689E-01   9.6006E+00  0.000E+00  0.000E+00  0.000E+00  1.06381E+03  6.256E-01  1.000E+01  3.500E-02  1.209E+00
   1    6    8     5     1    1.0432E+01  2.2686E-01   1.0205E+01  0.000E+00  0.000E+00  0.000E+00  1.05868E+03  6.790E-01  1.542E+01  6.166E-02  1.226E+00
   1    7    7     5     2    1.0205E+01  2.7894E-01   9.9265E+00  0.000E+00  0.000E+00  0.000E+00  1.05417E+03  6.732E-01  1.519E+01  7.594E-02  1.224E+00
   1    8    7     5     3    9.9265E+00  1.9221E-01   9.7343E+00  0.000E+00  0.000E+00  0.000E+00  1.04992E+03  6.676E-01  1.497E+01  5.241E-02  1.223E+00
   1    8    6     5     4    9.7343E+00  1.3577E-01   9.5985E+00  0.000E+00  0.000E+00  0.000E+00  1.04691E+03  6.637E-01  1.482E+01  3.706E-02  1.221E+00
   1    9    6     6     1    2.4276E+01  2.5176E-01   2.4024E+01  0.000E+00  0.000E+00  0.000E+00  1.04392E+03  1.196E+00  1.200E+01  6.000E-02  1.399E+00
   1   10    7     6     2    2.4024E+01  2.5131E-01   2.3773E+01  0.000E+00  0.000E+00  0.000E+00  1.03937E+03  1.188E+00  1.200E+01  6.000E-02  1.396E+00
   1   11    7     6     3    2.3773E+01  2.5086E-01   2.3522E+01  0.000E+00  0.000E+00  0.000E+00  1.03482E+03  1.181E+00  1.200E+01  6.000E-02  1.394E+00
   1   12    7     6     4    2.3522E+01  2.5041E-01   2.3271E+01  0.000E+00  0.000E+00  0.000E+00  1.03026E+03  1.173E+00  1.200E+01  6.000E-02  1.391E+00
   1   13    7     6     5    2.3271E+01  1.2680E-02   2.3259E+01  0.000E+00  0.000E+00  0.000E+00  1.02708E+03  1.169E+00  1.200E+01  2.400E-02  1.761E-01
   1   14    9     7     1    1.5000E+02  1.3826E+00   1.4862E+02  0.000E+00  0.000E+00  0.000E+00  1.03987E+03  2.288E+00  5.529E+01  5.593E-01  8.240E-01
   1   13    8     7     2    1.4862E+02  1.9977E+00   1.4662E+02  0.000E+00  0.000E+00  0.000E+00  1.03478E+03  2.279E+00  5.525E+01  6.147E-01  1.083E+00
   1   13    7     7     3    1.4662E+02  1.7520E+00   1.4487E+02  0.000E+00  0.000E+00  0.000E+00  1.02969E+03  2.269E+00  5.521E+01  5.584E-01  1.046E+00
   1   13    6     8     1    1.6813E+02  1.1849E+00   1.6694E+02  0.000E+00  0.000E+00  0.000E+00  1.02481E+03  2.936E+00  4.257E+01  4.338E-01  9.104E-01
   1   13    5     8     2    1.6694E+02  4.2109E-01   1.6652E+02  0.000E+00  0.000E+00  0.000E+00  1.01856E+03  2.931E+00  4.250E+01  4.331E-01  3.241E-01
   1   13    4     8     3    1.6652E+02 -1.6052E+00   1.6813E+02  0.000E+00  0.000E+00  0.000E+00  1.01231E+03  2.935E+00  4.255E+01  4.336E+00 -1.234E-01
   1   13    3     8     4    1.6813E+02 -3.2487E+00   1.7137E+02  0.000E+00  0.000E+00  0.000E+00  1.00608E+03  2.951E+00  4.278E+01  4.360E+00 -2.484E-01
   1   13    2     8     5    1.7137E+02 -2.4775E+00   1.7385E+02  0.000E+00  0.000E+00  0.000E+00  9.99844E+02  2.969E+00  4.305E+01  4.387E+00 -1.882E-01
   1   13    1     8     6    1.7385E+02 -1.9560E+00   1.7581E+02  0.000E+00  0.000E+00  0.000E+00  9.94858E+02  2.983E+00  4.326E+01  2.645E+00 -2.465E-01





UNSATURATED ZONE PACKAGE VOLUMETRIC BUDGET FOR  TIME STEP    30 STRESS PERIOD   49
  ------------------------------------------------------------------------------



     CUMULATIVE VOLUMES      L**3       RATES FOR THIS TIME STEP      L**3/T
     ------------------                 ------------------------

           IN:                                      IN:
           ---                                      ---
        INFILTRATION =  2147905214.0459          INFILTRATION =           4.4075

          OUT:                                     OUT:
          ----                                     ----
              UZF ET =  2001116767.5662                UZF ET =           0.7250
        UZF RECHARGE =     1377863.0341          UZF RECHARGE =       0.0000E+00

            IN - OUT =   145410583.4457              IN - OUT =           3.6825

          STORAGE:                                 STORAGE:
          --------                                 --------
      STORAGE CHANGE =   145411501.4760        STORAGE CHANGE =           3.6825

 PERCENT DISCREPANCY IS DIFFERENCE BETWEEN IN-OUT MINUS CHANGE IN STORAGE
 DIVIDED BY THE AVERAGE OF IN AND OUT TIMES 100

 PERCENT DISCREPANCY =          -0.00     PERCENT DISCREPANCY =           0.00






1
  VOLUMETRIC BUDGET FOR AGRICULTURAL FIELDS AT TIME STEP   30, STRESS PERIOD  49
  ------------------------------------------------------------------------------

     CUMULATIVE VOLUMES      L**3       RATES FOR THIS TIME STEP      L**3/T
     ------------------                 ------------------------

           IN:                                      IN:
           ---                                      ---
               AG WELLS  =  1591428992.0000                 AG WELLS  =           0.0000
      DIVERSION SEGMENTS =           0.0000        DIVERSION SEGMENTS =           0.0000
           GW IRRIGATION =           0.0000             GW IRRIGATION =           0.0000
           SW IRRIGATION =           0.0000             SW IRRIGATION =           0.0000
        SYSTEM LOSSES GW =           0.0000          SYSTEM LOSSES GW =           0.0000
        SYSTEM LOSSES SW =           0.0000          SYSTEM LOSSES SW =           0.0000

                TOTAL IN =  1591428992.0000                  TOTAL IN =           0.0000

          OUT:                                     OUT:
          ----                                     ----
               AG WELLS  =           0.0000                 AG WELLS  =           0.0000
      DIVERSION SEGMENTS =           0.0000        DIVERSION SEGMENTS =           0.0000
           GW IRRIGATION =  1591428992.0000             GW IRRIGATION =           0.0000
           SW IRRIGATION =           0.0000             SW IRRIGATION =           0.0000
        SYSTEM LOSSES GW =           0.0000          SYSTEM LOSSES GW =           0.0000
        SYSTEM LOSSES SW =           0.0000          SYSTEM LOSSES SW =           0.0000

               TOTAL OUT =  1591428992.0000                 TOTAL OUT =           0.0000

                IN - OUT =           0.0000                  IN - OUT =           0.0000

     PERCENT DISCREPANCY =           0.00         PERCENT DISCREPANCY =           0.00



1
  VOLUMETRIC BUDGET FOR ENTIRE MODEL AT END OF TIME STEP   30, STRESS PERIOD  49
  ------------------------------------------------------------------------------

     CUMULATIVE VOLUMES      L**3       RATES FOR THIS TIME STEP      L**3/T
     ------------------                 ------------------------

           IN:                                      IN:
           ---                                      ---
             STORAGE     =  2172213760.0000               STORAGE     =           7.0661
       CONSTANT HEAD     =           0.0000         CONSTANT HEAD     =           0.0000
     HEAD DEP BOUNDS     =    36181196.0000       HEAD DEP BOUNDS     =           0.2889
      STREAM LEAKAGE     =  1548687104.0000        STREAM LEAKAGE     =          12.4795
        UZF RECHARGE     =     1377861.8750          UZF RECHARGE     =           0.0000
               GW ET     =           0.0000                 GW ET     =           0.0000
     SURFACE LEAKAGE     =           0.0000       SURFACE LEAKAGE     =           0.0000
           AG WELLS      =           0.0000             AG WELLS      =           0.0000

                TOTAL IN =  3758459904.0000                  TOTAL IN =          19.8345

          OUT:                                     OUT:
          ----                                     ----
             STORAGE     =   838936704.0000               STORAGE     =          10.2583
       CONSTANT HEAD     =           0.0000         CONSTANT HEAD     =           0.0000
     HEAD DEP BOUNDS     =    36830232.0000       HEAD DEP BOUNDS     =           0.2887
      STREAM LEAKAGE     =  1273922432.0000        STREAM LEAKAGE     =           9.2875
        UZF RECHARGE     =           0.0000          UZF RECHARGE     =           0.0000
               GW ET     =    17343536.0000                 GW ET     =           0.0000
     SURFACE LEAKAGE     =           0.0000       SURFACE LEAKAGE     =           0.0000
           AG WELLS      =  1591428992.0000             AG WELLS      =           0.0000

               TOTAL OUT =  3758461952.0000                 TOTAL OUT =          19.8345

                IN - OUT =       -2048.0000                  IN - OUT =       1.5259E-05

     PERCENT DISCREPANCY =          -0.00         PERCENT DISCREPANCY =           0.00






         TIME SUMMARY AT END OF TIME STEP   30 IN STRESS PERIOD   49
                    SECONDS     MINUTES      HOURS       DAYS        YEARS
                    -----------------------------------------------------------
   TIME STEP LENGTH  87667.      1461.1      24.352      1.0147     2.77799E-03
 STRESS PERIOD TIME 2.63000E+06  43833.      730.56      30.440     8.33397E-02
         TOTAL TIME 1.26325E+08 2.10542E+06  35090.      1462.1      4.0030    
1

 Run end date and time (yyyy/mm/dd hh:mm:ss): 2020/03/03 10:39:23
 Elapsed run time:  9.408 Seconds

