                                  MODFLOW-NWT-SWR1 
      U.S. GEOLOGICAL SURVEY MODULAR FINITE-DIFFERENCE GROUNDWATER-FLOW MODEL
                            VERSION 1.0.9 07/01/2014
                    BASED ON MODFLOW-2005 VERSION 1.11.00 08/30/2013

 LIST FILE: .\Ex_prob2\Pr2MF2005.LST
                         UNIT    1

 OPENING .\Ex_prob2\Pr2.BA6
 FILE TYPE:BAS6   UNIT    2   STATUS:OLD    
 FORMAT:FORMATTED              ACCESS:SEQUENTIAL          

 OPENING .\Ex_prob2\Pr2.DIS
 FILE TYPE:DIS   UNIT   10   STATUS:OLD    
 FORMAT:FORMATTED              ACCESS:SEQUENTIAL          

 OPENING .\Ex_prob2\Pr2.RCH
 FILE TYPE:RCH   UNIT   18   STATUS:OLD    
 FORMAT:FORMATTED              ACCESS:SEQUENTIAL          

 OPENING .\Ex_prob2\Pr2.OC
 FILE TYPE:OC   UNIT   20   STATUS:OLD    
 FORMAT:FORMATTED              ACCESS:SEQUENTIAL          

 OPENING .\Ex_prob2\Pr2MF2005.BUD
 FILE TYPE:DATA(BINARY)   UNIT   32   STATUS:UNKNOWN
 FORMAT:BINARY                 ACCESS:SEQUENTIAL          

 OPENING .\Ex_prob2\Pr2.PCG
 FILE TYPE:PCG   UNIT   35   STATUS:OLD    
 FORMAT:FORMATTED              ACCESS:SEQUENTIAL          

 OPENING .\Ex_prob2\Pr2.LPF
 FILE TYPE:LPF   UNIT   34   STATUS:OLD    
 FORMAT:FORMATTED              ACCESS:SEQUENTIAL          

 BAS -- BASIC PACKAGE, VERSION 7, 5/2/2005 INPUT READ FROM UNIT    2
 
 MODFLOW was compiled using mixed precision
 Precision of REAL variables:           6
 Precision of DOUBLE PRECISION variables:          15

 DISCRETIZATION INPUT DATA READ FROM UNIT   10
   14 LAYERS        40 ROWS        40 COLUMNS
    3 STRESS PERIOD(S) IN SIMULATION
 MODEL TIME UNIT IS DAYS
 MODEL LENGTH UNIT IS UNDEFINED
  Confining bed flag for each layer:
   0   0   0   0   0   0   0   0   0   0   0   0   0   0

                     DELR =   125.000    

                     DELC =   125.000    

 TOP ELEVATION OF LAYER 1 =   80.0000    

   MODEL LAYER BOTTOM EL. =   65.0000     FOR LAYER   1

   MODEL LAYER BOTTOM EL. =   60.0000     FOR LAYER   2

   MODEL LAYER BOTTOM EL. =   55.0000     FOR LAYER   3

   MODEL LAYER BOTTOM EL. =   50.0000     FOR LAYER   4

   MODEL LAYER BOTTOM EL. =   45.0000     FOR LAYER   5

   MODEL LAYER BOTTOM EL. =   40.0000     FOR LAYER   6

   MODEL LAYER BOTTOM EL. =   35.0000     FOR LAYER   7

   MODEL LAYER BOTTOM EL. =   30.0000     FOR LAYER   8

   MODEL LAYER BOTTOM EL. =   25.0000     FOR LAYER   9

   MODEL LAYER BOTTOM EL. =   20.0000     FOR LAYER  10

   MODEL LAYER BOTTOM EL. =   15.0000     FOR LAYER  11

   MODEL LAYER BOTTOM EL. =  10.00000     FOR LAYER  12

   MODEL LAYER BOTTOM EL. =   5.00000     FOR LAYER  13

   MODEL LAYER BOTTOM EL. =   0.00000     FOR LAYER  14


 STRESS PERIOD     LENGTH       TIME STEPS     MULTIPLIER FOR DELT    SS FLAG
 ----------------------------------------------------------------------------
        1         190.0000         10                    1.000         TR
        2         518.0000          2                    1.000         TR
        3         1922.000         17                    1.000         TR

 TRANSIENT SIMULATION



 
 #BCF2 sample problem 2                                                          
 #Mounding under a recharge pond                                                 
 THE FREE FORMAT OPTION HAS BEEN SELECTED

           BOUNDARY ARRAY =              1 FOR LAYER   1

           BOUNDARY ARRAY =              1 FOR LAYER   2

           BOUNDARY ARRAY =              1 FOR LAYER   3

           BOUNDARY ARRAY =              1 FOR LAYER   4

           BOUNDARY ARRAY =              1 FOR LAYER   5

           BOUNDARY ARRAY =              1 FOR LAYER   6

           BOUNDARY ARRAY =              1 FOR LAYER   7

           BOUNDARY ARRAY =              1 FOR LAYER   8

           BOUNDARY ARRAY =              1 FOR LAYER   9



                     BOUNDARY ARRAY FOR LAYER  10
 READING ON UNIT    2 WITH FORMAT: (20I4)              

       1  2  3  4  5  6  7  8  9 10 11 12 13 14 15 16 17 18 19 20 21 22 23 24 25 26 27 28 29 30 31 32 33 34 35 36 37 38 39 40
 ............................................................................................................................
   1   1  1  1  1  1  1  1  1  1  1  1  1  1  1  1  1  1  1  1  1  1  1  1  1  1  1  1  1  1  1  1  1  1  1  1  1  1  1  1 -1
   2   1  1  1  1  1  1  1  1  1  1  1  1  1  1  1  1  1  1  1  1  1  1  1  1  1  1  1  1  1  1  1  1  1  1  1  1  1  1  1 -1
   3   1  1  1  1  1  1  1  1  1  1  1  1  1  1  1  1  1  1  1  1  1  1  1  1  1  1  1  1  1  1  1  1  1  1  1  1  1  1  1 -1
   4   1  1  1  1  1  1  1  1  1  1  1  1  1  1  1  1  1  1  1  1  1  1  1  1  1  1  1  1  1  1  1  1  1  1  1  1  1  1  1 -1
   5   1  1  1  1  1  1  1  1  1  1  1  1  1  1  1  1  1  1  1  1  1  1  1  1  1  1  1  1  1  1  1  1  1  1  1  1  1  1  1 -1
   6   1  1  1  1  1  1  1  1  1  1  1  1  1  1  1  1  1  1  1  1  1  1  1  1  1  1  1  1  1  1  1  1  1  1  1  1  1  1  1 -1
   7   1  1  1  1  1  1  1  1  1  1  1  1  1  1  1  1  1  1  1  1  1  1  1  1  1  1  1  1  1  1  1  1  1  1  1  1  1  1  1 -1
   8   1  1  1  1  1  1  1  1  1  1  1  1  1  1  1  1  1  1  1  1  1  1  1  1  1  1  1  1  1  1  1  1  1  1  1  1  1  1  1 -1
   9   1  1  1  1  1  1  1  1  1  1  1  1  1  1  1  1  1  1  1  1  1  1  1  1  1  1  1  1  1  1  1  1  1  1  1  1  1  1  1 -1
  10   1  1  1  1  1  1  1  1  1  1  1  1  1  1  1  1  1  1  1  1  1  1  1  1  1  1  1  1  1  1  1  1  1  1  1  1  1  1  1 -1
  11   1  1  1  1  1  1  1  1  1  1  1  1  1  1  1  1  1  1  1  1  1  1  1  1  1  1  1  1  1  1  1  1  1  1  1  1  1  1  1 -1
  12   1  1  1  1  1  1  1  1  1  1  1  1  1  1  1  1  1  1  1  1  1  1  1  1  1  1  1  1  1  1  1  1  1  1  1  1  1  1  1 -1
  13   1  1  1  1  1  1  1  1  1  1  1  1  1  1  1  1  1  1  1  1  1  1  1  1  1  1  1  1  1  1  1  1  1  1  1  1  1  1  1 -1
  14   1  1  1  1  1  1  1  1  1  1  1  1  1  1  1  1  1  1  1  1  1  1  1  1  1  1  1  1  1  1  1  1  1  1  1  1  1  1  1 -1
  15   1  1  1  1  1  1  1  1  1  1  1  1  1  1  1  1  1  1  1  1  1  1  1  1  1  1  1  1  1  1  1  1  1  1  1  1  1  1  1 -1
  16   1  1  1  1  1  1  1  1  1  1  1  1  1  1  1  1  1  1  1  1  1  1  1  1  1  1  1  1  1  1  1  1  1  1  1  1  1  1  1 -1
  17   1  1  1  1  1  1  1  1  1  1  1  1  1  1  1  1  1  1  1  1  1  1  1  1  1  1  1  1  1  1  1  1  1  1  1  1  1  1  1 -1
  18   1  1  1  1  1  1  1  1  1  1  1  1  1  1  1  1  1  1  1  1  1  1  1  1  1  1  1  1  1  1  1  1  1  1  1  1  1  1  1 -1
  19   1  1  1  1  1  1  1  1  1  1  1  1  1  1  1  1  1  1  1  1  1  1  1  1  1  1  1  1  1  1  1  1  1  1  1  1  1  1  1 -1
  20   1  1  1  1  1  1  1  1  1  1  1  1  1  1  1  1  1  1  1  1  1  1  1  1  1  1  1  1  1  1  1  1  1  1  1  1  1  1  1 -1
  21   1  1  1  1  1  1  1  1  1  1  1  1  1  1  1  1  1  1  1  1  1  1  1  1  1  1  1  1  1  1  1  1  1  1  1  1  1  1  1 -1
  22   1  1  1  1  1  1  1  1  1  1  1  1  1  1  1  1  1  1  1  1  1  1  1  1  1  1  1  1  1  1  1  1  1  1  1  1  1  1  1 -1
  23   1  1  1  1  1  1  1  1  1  1  1  1  1  1  1  1  1  1  1  1  1  1  1  1  1  1  1  1  1  1  1  1  1  1  1  1  1  1  1 -1
  24   1  1  1  1  1  1  1  1  1  1  1  1  1  1  1  1  1  1  1  1  1  1  1  1  1  1  1  1  1  1  1  1  1  1  1  1  1  1  1 -1
  25   1  1  1  1  1  1  1  1  1  1  1  1  1  1  1  1  1  1  1  1  1  1  1  1  1  1  1  1  1  1  1  1  1  1  1  1  1  1  1 -1
  26   1  1  1  1  1  1  1  1  1  1  1  1  1  1  1  1  1  1  1  1  1  1  1  1  1  1  1  1  1  1  1  1  1  1  1  1  1  1  1 -1
  27   1  1  1  1  1  1  1  1  1  1  1  1  1  1  1  1  1  1  1  1  1  1  1  1  1  1  1  1  1  1  1  1  1  1  1  1  1  1  1 -1
  28   1  1  1  1  1  1  1  1  1  1  1  1  1  1  1  1  1  1  1  1  1  1  1  1  1  1  1  1  1  1  1  1  1  1  1  1  1  1  1 -1
  29   1  1  1  1  1  1  1  1  1  1  1  1  1  1  1  1  1  1  1  1  1  1  1  1  1  1  1  1  1  1  1  1  1  1  1  1  1  1  1 -1
  30   1  1  1  1  1  1  1  1  1  1  1  1  1  1  1  1  1  1  1  1  1  1  1  1  1  1  1  1  1  1  1  1  1  1  1  1  1  1  1 -1
  31   1  1  1  1  1  1  1  1  1  1  1  1  1  1  1  1  1  1  1  1  1  1  1  1  1  1  1  1  1  1  1  1  1  1  1  1  1  1  1 -1
  32   1  1  1  1  1  1  1  1  1  1  1  1  1  1  1  1  1  1  1  1  1  1  1  1  1  1  1  1  1  1  1  1  1  1  1  1  1  1  1 -1
  33   1  1  1  1  1  1  1  1  1  1  1  1  1  1  1  1  1  1  1  1  1  1  1  1  1  1  1  1  1  1  1  1  1  1  1  1  1  1  1 -1
  34   1  1  1  1  1  1  1  1  1  1  1  1  1  1  1  1  1  1  1  1  1  1  1  1  1  1  1  1  1  1  1  1  1  1  1  1  1  1  1 -1
  35   1  1  1  1  1  1  1  1  1  1  1  1  1  1  1  1  1  1  1  1  1  1  1  1  1  1  1  1  1  1  1  1  1  1  1  1  1  1  1 -1
  36   1  1  1  1  1  1  1  1  1  1  1  1  1  1  1  1  1  1  1  1  1  1  1  1  1  1  1  1  1  1  1  1  1  1  1  1  1  1  1 -1
  37   1  1  1  1  1  1  1  1  1  1  1  1  1  1  1  1  1  1  1  1  1  1  1  1  1  1  1  1  1  1  1  1  1  1  1  1  1  1  1 -1
  38   1  1  1  1  1  1  1  1  1  1  1  1  1  1  1  1  1  1  1  1  1  1  1  1  1  1  1  1  1  1  1  1  1  1  1  1  1  1  1 -1
  39   1  1  1  1  1  1  1  1  1  1  1  1  1  1  1  1  1  1  1  1  1  1  1  1  1  1  1  1  1  1  1  1  1  1  1  1  1  1  1 -1
  40  -1 -1 -1 -1 -1 -1 -1 -1 -1 -1 -1 -1 -1 -1 -1 -1 -1 -1 -1 -1 -1 -1 -1 -1 -1 -1 -1 -1 -1 -1 -1 -1 -1 -1 -1 -1 -1 -1 -1 -1



                     BOUNDARY ARRAY FOR LAYER  11
 READING ON UNIT    2 WITH FORMAT: (20I4)              

       1  2  3  4  5  6  7  8  9 10 11 12 13 14 15 16 17 18 19 20 21 22 23 24 25 26 27 28 29 30 31 32 33 34 35 36 37 38 39 40
 ............................................................................................................................
   1   1  1  1  1  1  1  1  1  1  1  1  1  1  1  1  1  1  1  1  1  1  1  1  1  1  1  1  1  1  1  1  1  1  1  1  1  1  1  1 -1
   2   1  1  1  1  1  1  1  1  1  1  1  1  1  1  1  1  1  1  1  1  1  1  1  1  1  1  1  1  1  1  1  1  1  1  1  1  1  1  1 -1
   3   1  1  1  1  1  1  1  1  1  1  1  1  1  1  1  1  1  1  1  1  1  1  1  1  1  1  1  1  1  1  1  1  1  1  1  1  1  1  1 -1
   4   1  1  1  1  1  1  1  1  1  1  1  1  1  1  1  1  1  1  1  1  1  1  1  1  1  1  1  1  1  1  1  1  1  1  1  1  1  1  1 -1
   5   1  1  1  1  1  1  1  1  1  1  1  1  1  1  1  1  1  1  1  1  1  1  1  1  1  1  1  1  1  1  1  1  1  1  1  1  1  1  1 -1
   6   1  1  1  1  1  1  1  1  1  1  1  1  1  1  1  1  1  1  1  1  1  1  1  1  1  1  1  1  1  1  1  1  1  1  1  1  1  1  1 -1
   7   1  1  1  1  1  1  1  1  1  1  1  1  1  1  1  1  1  1  1  1  1  1  1  1  1  1  1  1  1  1  1  1  1  1  1  1  1  1  1 -1
   8   1  1  1  1  1  1  1  1  1  1  1  1  1  1  1  1  1  1  1  1  1  1  1  1  1  1  1  1  1  1  1  1  1  1  1  1  1  1  1 -1
   9   1  1  1  1  1  1  1  1  1  1  1  1  1  1  1  1  1  1  1  1  1  1  1  1  1  1  1  1  1  1  1  1  1  1  1  1  1  1  1 -1
  10   1  1  1  1  1  1  1  1  1  1  1  1  1  1  1  1  1  1  1  1  1  1  1  1  1  1  1  1  1  1  1  1  1  1  1  1  1  1  1 -1
  11   1  1  1  1  1  1  1  1  1  1  1  1  1  1  1  1  1  1  1  1  1  1  1  1  1  1  1  1  1  1  1  1  1  1  1  1  1  1  1 -1
  12   1  1  1  1  1  1  1  1  1  1  1  1  1  1  1  1  1  1  1  1  1  1  1  1  1  1  1  1  1  1  1  1  1  1  1  1  1  1  1 -1
  13   1  1  1  1  1  1  1  1  1  1  1  1  1  1  1  1  1  1  1  1  1  1  1  1  1  1  1  1  1  1  1  1  1  1  1  1  1  1  1 -1
  14   1  1  1  1  1  1  1  1  1  1  1  1  1  1  1  1  1  1  1  1  1  1  1  1  1  1  1  1  1  1  1  1  1  1  1  1  1  1  1 -1
  15   1  1  1  1  1  1  1  1  1  1  1  1  1  1  1  1  1  1  1  1  1  1  1  1  1  1  1  1  1  1  1  1  1  1  1  1  1  1  1 -1
  16   1  1  1  1  1  1  1  1  1  1  1  1  1  1  1  1  1  1  1  1  1  1  1  1  1  1  1  1  1  1  1  1  1  1  1  1  1  1  1 -1
  17   1  1  1  1  1  1  1  1  1  1  1  1  1  1  1  1  1  1  1  1  1  1  1  1  1  1  1  1  1  1  1  1  1  1  1  1  1  1  1 -1
  18   1  1  1  1  1  1  1  1  1  1  1  1  1  1  1  1  1  1  1  1  1  1  1  1  1  1  1  1  1  1  1  1  1  1  1  1  1  1  1 -1
  19   1  1  1  1  1  1  1  1  1  1  1  1  1  1  1  1  1  1  1  1  1  1  1  1  1  1  1  1  1  1  1  1  1  1  1  1  1  1  1 -1
  20   1  1  1  1  1  1  1  1  1  1  1  1  1  1  1  1  1  1  1  1  1  1  1  1  1  1  1  1  1  1  1  1  1  1  1  1  1  1  1 -1
  21   1  1  1  1  1  1  1  1  1  1  1  1  1  1  1  1  1  1  1  1  1  1  1  1  1  1  1  1  1  1  1  1  1  1  1  1  1  1  1 -1
  22   1  1  1  1  1  1  1  1  1  1  1  1  1  1  1  1  1  1  1  1  1  1  1  1  1  1  1  1  1  1  1  1  1  1  1  1  1  1  1 -1
  23   1  1  1  1  1  1  1  1  1  1  1  1  1  1  1  1  1  1  1  1  1  1  1  1  1  1  1  1  1  1  1  1  1  1  1  1  1  1  1 -1
  24   1  1  1  1  1  1  1  1  1  1  1  1  1  1  1  1  1  1  1  1  1  1  1  1  1  1  1  1  1  1  1  1  1  1  1  1  1  1  1 -1
  25   1  1  1  1  1  1  1  1  1  1  1  1  1  1  1  1  1  1  1  1  1  1  1  1  1  1  1  1  1  1  1  1  1  1  1  1  1  1  1 -1
  26   1  1  1  1  1  1  1  1  1  1  1  1  1  1  1  1  1  1  1  1  1  1  1  1  1  1  1  1  1  1  1  1  1  1  1  1  1  1  1 -1
  27   1  1  1  1  1  1  1  1  1  1  1  1  1  1  1  1  1  1  1  1  1  1  1  1  1  1  1  1  1  1  1  1  1  1  1  1  1  1  1 -1
  28   1  1  1  1  1  1  1  1  1  1  1  1  1  1  1  1  1  1  1  1  1  1  1  1  1  1  1  1  1  1  1  1  1  1  1  1  1  1  1 -1
  29   1  1  1  1  1  1  1  1  1  1  1  1  1  1  1  1  1  1  1  1  1  1  1  1  1  1  1  1  1  1  1  1  1  1  1  1  1  1  1 -1
  30   1  1  1  1  1  1  1  1  1  1  1  1  1  1  1  1  1  1  1  1  1  1  1  1  1  1  1  1  1  1  1  1  1  1  1  1  1  1  1 -1
  31   1  1  1  1  1  1  1  1  1  1  1  1  1  1  1  1  1  1  1  1  1  1  1  1  1  1  1  1  1  1  1  1  1  1  1  1  1  1  1 -1
  32   1  1  1  1  1  1  1  1  1  1  1  1  1  1  1  1  1  1  1  1  1  1  1  1  1  1  1  1  1  1  1  1  1  1  1  1  1  1  1 -1
  33   1  1  1  1  1  1  1  1  1  1  1  1  1  1  1  1  1  1  1  1  1  1  1  1  1  1  1  1  1  1  1  1  1  1  1  1  1  1  1 -1
  34   1  1  1  1  1  1  1  1  1  1  1  1  1  1  1  1  1  1  1  1  1  1  1  1  1  1  1  1  1  1  1  1  1  1  1  1  1  1  1 -1
  35   1  1  1  1  1  1  1  1  1  1  1  1  1  1  1  1  1  1  1  1  1  1  1  1  1  1  1  1  1  1  1  1  1  1  1  1  1  1  1 -1
  36   1  1  1  1  1  1  1  1  1  1  1  1  1  1  1  1  1  1  1  1  1  1  1  1  1  1  1  1  1  1  1  1  1  1  1  1  1  1  1 -1
  37   1  1  1  1  1  1  1  1  1  1  1  1  1  1  1  1  1  1  1  1  1  1  1  1  1  1  1  1  1  1  1  1  1  1  1  1  1  1  1 -1
  38   1  1  1  1  1  1  1  1  1  1  1  1  1  1  1  1  1  1  1  1  1  1  1  1  1  1  1  1  1  1  1  1  1  1  1  1  1  1  1 -1
  39   1  1  1  1  1  1  1  1  1  1  1  1  1  1  1  1  1  1  1  1  1  1  1  1  1  1  1  1  1  1  1  1  1  1  1  1  1  1  1 -1
  40  -1 -1 -1 -1 -1 -1 -1 -1 -1 -1 -1 -1 -1 -1 -1 -1 -1 -1 -1 -1 -1 -1 -1 -1 -1 -1 -1 -1 -1 -1 -1 -1 -1 -1 -1 -1 -1 -1 -1 -1



                     BOUNDARY ARRAY FOR LAYER  12
 READING ON UNIT    2 WITH FORMAT: (20I4)              

       1  2  3  4  5  6  7  8  9 10 11 12 13 14 15 16 17 18 19 20 21 22 23 24 25 26 27 28 29 30 31 32 33 34 35 36 37 38 39 40
 ............................................................................................................................
   1   1  1  1  1  1  1  1  1  1  1  1  1  1  1  1  1  1  1  1  1  1  1  1  1  1  1  1  1  1  1  1  1  1  1  1  1  1  1  1 -1
   2   1  1  1  1  1  1  1  1  1  1  1  1  1  1  1  1  1  1  1  1  1  1  1  1  1  1  1  1  1  1  1  1  1  1  1  1  1  1  1 -1
   3   1  1  1  1  1  1  1  1  1  1  1  1  1  1  1  1  1  1  1  1  1  1  1  1  1  1  1  1  1  1  1  1  1  1  1  1  1  1  1 -1
   4   1  1  1  1  1  1  1  1  1  1  1  1  1  1  1  1  1  1  1  1  1  1  1  1  1  1  1  1  1  1  1  1  1  1  1  1  1  1  1 -1
   5   1  1  1  1  1  1  1  1  1  1  1  1  1  1  1  1  1  1  1  1  1  1  1  1  1  1  1  1  1  1  1  1  1  1  1  1  1  1  1 -1
   6   1  1  1  1  1  1  1  1  1  1  1  1  1  1  1  1  1  1  1  1  1  1  1  1  1  1  1  1  1  1  1  1  1  1  1  1  1  1  1 -1
   7   1  1  1  1  1  1  1  1  1  1  1  1  1  1  1  1  1  1  1  1  1  1  1  1  1  1  1  1  1  1  1  1  1  1  1  1  1  1  1 -1
   8   1  1  1  1  1  1  1  1  1  1  1  1  1  1  1  1  1  1  1  1  1  1  1  1  1  1  1  1  1  1  1  1  1  1  1  1  1  1  1 -1
   9   1  1  1  1  1  1  1  1  1  1  1  1  1  1  1  1  1  1  1  1  1  1  1  1  1  1  1  1  1  1  1  1  1  1  1  1  1  1  1 -1
  10   1  1  1  1  1  1  1  1  1  1  1  1  1  1  1  1  1  1  1  1  1  1  1  1  1  1  1  1  1  1  1  1  1  1  1  1  1  1  1 -1
  11   1  1  1  1  1  1  1  1  1  1  1  1  1  1  1  1  1  1  1  1  1  1  1  1  1  1  1  1  1  1  1  1  1  1  1  1  1  1  1 -1
  12   1  1  1  1  1  1  1  1  1  1  1  1  1  1  1  1  1  1  1  1  1  1  1  1  1  1  1  1  1  1  1  1  1  1  1  1  1  1  1 -1
  13   1  1  1  1  1  1  1  1  1  1  1  1  1  1  1  1  1  1  1  1  1  1  1  1  1  1  1  1  1  1  1  1  1  1  1  1  1  1  1 -1
  14   1  1  1  1  1  1  1  1  1  1  1  1  1  1  1  1  1  1  1  1  1  1  1  1  1  1  1  1  1  1  1  1  1  1  1  1  1  1  1 -1
  15   1  1  1  1  1  1  1  1  1  1  1  1  1  1  1  1  1  1  1  1  1  1  1  1  1  1  1  1  1  1  1  1  1  1  1  1  1  1  1 -1
  16   1  1  1  1  1  1  1  1  1  1  1  1  1  1  1  1  1  1  1  1  1  1  1  1  1  1  1  1  1  1  1  1  1  1  1  1  1  1  1 -1
  17   1  1  1  1  1  1  1  1  1  1  1  1  1  1  1  1  1  1  1  1  1  1  1  1  1  1  1  1  1  1  1  1  1  1  1  1  1  1  1 -1
  18   1  1  1  1  1  1  1  1  1  1  1  1  1  1  1  1  1  1  1  1  1  1  1  1  1  1  1  1  1  1  1  1  1  1  1  1  1  1  1 -1
  19   1  1  1  1  1  1  1  1  1  1  1  1  1  1  1  1  1  1  1  1  1  1  1  1  1  1  1  1  1  1  1  1  1  1  1  1  1  1  1 -1
  20   1  1  1  1  1  1  1  1  1  1  1  1  1  1  1  1  1  1  1  1  1  1  1  1  1  1  1  1  1  1  1  1  1  1  1  1  1  1  1 -1
  21   1  1  1  1  1  1  1  1  1  1  1  1  1  1  1  1  1  1  1  1  1  1  1  1  1  1  1  1  1  1  1  1  1  1  1  1  1  1  1 -1
  22   1  1  1  1  1  1  1  1  1  1  1  1  1  1  1  1  1  1  1  1  1  1  1  1  1  1  1  1  1  1  1  1  1  1  1  1  1  1  1 -1
  23   1  1  1  1  1  1  1  1  1  1  1  1  1  1  1  1  1  1  1  1  1  1  1  1  1  1  1  1  1  1  1  1  1  1  1  1  1  1  1 -1
  24   1  1  1  1  1  1  1  1  1  1  1  1  1  1  1  1  1  1  1  1  1  1  1  1  1  1  1  1  1  1  1  1  1  1  1  1  1  1  1 -1
  25   1  1  1  1  1  1  1  1  1  1  1  1  1  1  1  1  1  1  1  1  1  1  1  1  1  1  1  1  1  1  1  1  1  1  1  1  1  1  1 -1
  26   1  1  1  1  1  1  1  1  1  1  1  1  1  1  1  1  1  1  1  1  1  1  1  1  1  1  1  1  1  1  1  1  1  1  1  1  1  1  1 -1
  27   1  1  1  1  1  1  1  1  1  1  1  1  1  1  1  1  1  1  1  1  1  1  1  1  1  1  1  1  1  1  1  1  1  1  1  1  1  1  1 -1
  28   1  1  1  1  1  1  1  1  1  1  1  1  1  1  1  1  1  1  1  1  1  1  1  1  1  1  1  1  1  1  1  1  1  1  1  1  1  1  1 -1
  29   1  1  1  1  1  1  1  1  1  1  1  1  1  1  1  1  1  1  1  1  1  1  1  1  1  1  1  1  1  1  1  1  1  1  1  1  1  1  1 -1
  30   1  1  1  1  1  1  1  1  1  1  1  1  1  1  1  1  1  1  1  1  1  1  1  1  1  1  1  1  1  1  1  1  1  1  1  1  1  1  1 -1
  31   1  1  1  1  1  1  1  1  1  1  1  1  1  1  1  1  1  1  1  1  1  1  1  1  1  1  1  1  1  1  1  1  1  1  1  1  1  1  1 -1
  32   1  1  1  1  1  1  1  1  1  1  1  1  1  1  1  1  1  1  1  1  1  1  1  1  1  1  1  1  1  1  1  1  1  1  1  1  1  1  1 -1
  33   1  1  1  1  1  1  1  1  1  1  1  1  1  1  1  1  1  1  1  1  1  1  1  1  1  1  1  1  1  1  1  1  1  1  1  1  1  1  1 -1
  34   1  1  1  1  1  1  1  1  1  1  1  1  1  1  1  1  1  1  1  1  1  1  1  1  1  1  1  1  1  1  1  1  1  1  1  1  1  1  1 -1
  35   1  1  1  1  1  1  1  1  1  1  1  1  1  1  1  1  1  1  1  1  1  1  1  1  1  1  1  1  1  1  1  1  1  1  1  1  1  1  1 -1
  36   1  1  1  1  1  1  1  1  1  1  1  1  1  1  1  1  1  1  1  1  1  1  1  1  1  1  1  1  1  1  1  1  1  1  1  1  1  1  1 -1
  37   1  1  1  1  1  1  1  1  1  1  1  1  1  1  1  1  1  1  1  1  1  1  1  1  1  1  1  1  1  1  1  1  1  1  1  1  1  1  1 -1
  38   1  1  1  1  1  1  1  1  1  1  1  1  1  1  1  1  1  1  1  1  1  1  1  1  1  1  1  1  1  1  1  1  1  1  1  1  1  1  1 -1
  39   1  1  1  1  1  1  1  1  1  1  1  1  1  1  1  1  1  1  1  1  1  1  1  1  1  1  1  1  1  1  1  1  1  1  1  1  1  1  1 -1
  40  -1 -1 -1 -1 -1 -1 -1 -1 -1 -1 -1 -1 -1 -1 -1 -1 -1 -1 -1 -1 -1 -1 -1 -1 -1 -1 -1 -1 -1 -1 -1 -1 -1 -1 -1 -1 -1 -1 -1 -1



                     BOUNDARY ARRAY FOR LAYER  13
 READING ON UNIT    2 WITH FORMAT: (20I4)              

       1  2  3  4  5  6  7  8  9 10 11 12 13 14 15 16 17 18 19 20 21 22 23 24 25 26 27 28 29 30 31 32 33 34 35 36 37 38 39 40
 ............................................................................................................................
   1   1  1  1  1  1  1  1  1  1  1  1  1  1  1  1  1  1  1  1  1  1  1  1  1  1  1  1  1  1  1  1  1  1  1  1  1  1  1  1 -1
   2   1  1  1  1  1  1  1  1  1  1  1  1  1  1  1  1  1  1  1  1  1  1  1  1  1  1  1  1  1  1  1  1  1  1  1  1  1  1  1 -1
   3   1  1  1  1  1  1  1  1  1  1  1  1  1  1  1  1  1  1  1  1  1  1  1  1  1  1  1  1  1  1  1  1  1  1  1  1  1  1  1 -1
   4   1  1  1  1  1  1  1  1  1  1  1  1  1  1  1  1  1  1  1  1  1  1  1  1  1  1  1  1  1  1  1  1  1  1  1  1  1  1  1 -1
   5   1  1  1  1  1  1  1  1  1  1  1  1  1  1  1  1  1  1  1  1  1  1  1  1  1  1  1  1  1  1  1  1  1  1  1  1  1  1  1 -1
   6   1  1  1  1  1  1  1  1  1  1  1  1  1  1  1  1  1  1  1  1  1  1  1  1  1  1  1  1  1  1  1  1  1  1  1  1  1  1  1 -1
   7   1  1  1  1  1  1  1  1  1  1  1  1  1  1  1  1  1  1  1  1  1  1  1  1  1  1  1  1  1  1  1  1  1  1  1  1  1  1  1 -1
   8   1  1  1  1  1  1  1  1  1  1  1  1  1  1  1  1  1  1  1  1  1  1  1  1  1  1  1  1  1  1  1  1  1  1  1  1  1  1  1 -1
   9   1  1  1  1  1  1  1  1  1  1  1  1  1  1  1  1  1  1  1  1  1  1  1  1  1  1  1  1  1  1  1  1  1  1  1  1  1  1  1 -1
  10   1  1  1  1  1  1  1  1  1  1  1  1  1  1  1  1  1  1  1  1  1  1  1  1  1  1  1  1  1  1  1  1  1  1  1  1  1  1  1 -1
  11   1  1  1  1  1  1  1  1  1  1  1  1  1  1  1  1  1  1  1  1  1  1  1  1  1  1  1  1  1  1  1  1  1  1  1  1  1  1  1 -1
  12   1  1  1  1  1  1  1  1  1  1  1  1  1  1  1  1  1  1  1  1  1  1  1  1  1  1  1  1  1  1  1  1  1  1  1  1  1  1  1 -1
  13   1  1  1  1  1  1  1  1  1  1  1  1  1  1  1  1  1  1  1  1  1  1  1  1  1  1  1  1  1  1  1  1  1  1  1  1  1  1  1 -1
  14   1  1  1  1  1  1  1  1  1  1  1  1  1  1  1  1  1  1  1  1  1  1  1  1  1  1  1  1  1  1  1  1  1  1  1  1  1  1  1 -1
  15   1  1  1  1  1  1  1  1  1  1  1  1  1  1  1  1  1  1  1  1  1  1  1  1  1  1  1  1  1  1  1  1  1  1  1  1  1  1  1 -1
  16   1  1  1  1  1  1  1  1  1  1  1  1  1  1  1  1  1  1  1  1  1  1  1  1  1  1  1  1  1  1  1  1  1  1  1  1  1  1  1 -1
  17   1  1  1  1  1  1  1  1  1  1  1  1  1  1  1  1  1  1  1  1  1  1  1  1  1  1  1  1  1  1  1  1  1  1  1  1  1  1  1 -1
  18   1  1  1  1  1  1  1  1  1  1  1  1  1  1  1  1  1  1  1  1  1  1  1  1  1  1  1  1  1  1  1  1  1  1  1  1  1  1  1 -1
  19   1  1  1  1  1  1  1  1  1  1  1  1  1  1  1  1  1  1  1  1  1  1  1  1  1  1  1  1  1  1  1  1  1  1  1  1  1  1  1 -1
  20   1  1  1  1  1  1  1  1  1  1  1  1  1  1  1  1  1  1  1  1  1  1  1  1  1  1  1  1  1  1  1  1  1  1  1  1  1  1  1 -1
  21   1  1  1  1  1  1  1  1  1  1  1  1  1  1  1  1  1  1  1  1  1  1  1  1  1  1  1  1  1  1  1  1  1  1  1  1  1  1  1 -1
  22   1  1  1  1  1  1  1  1  1  1  1  1  1  1  1  1  1  1  1  1  1  1  1  1  1  1  1  1  1  1  1  1  1  1  1  1  1  1  1 -1
  23   1  1  1  1  1  1  1  1  1  1  1  1  1  1  1  1  1  1  1  1  1  1  1  1  1  1  1  1  1  1  1  1  1  1  1  1  1  1  1 -1
  24   1  1  1  1  1  1  1  1  1  1  1  1  1  1  1  1  1  1  1  1  1  1  1  1  1  1  1  1  1  1  1  1  1  1  1  1  1  1  1 -1
  25   1  1  1  1  1  1  1  1  1  1  1  1  1  1  1  1  1  1  1  1  1  1  1  1  1  1  1  1  1  1  1  1  1  1  1  1  1  1  1 -1
  26   1  1  1  1  1  1  1  1  1  1  1  1  1  1  1  1  1  1  1  1  1  1  1  1  1  1  1  1  1  1  1  1  1  1  1  1  1  1  1 -1
  27   1  1  1  1  1  1  1  1  1  1  1  1  1  1  1  1  1  1  1  1  1  1  1  1  1  1  1  1  1  1  1  1  1  1  1  1  1  1  1 -1
  28   1  1  1  1  1  1  1  1  1  1  1  1  1  1  1  1  1  1  1  1  1  1  1  1  1  1  1  1  1  1  1  1  1  1  1  1  1  1  1 -1
  29   1  1  1  1  1  1  1  1  1  1  1  1  1  1  1  1  1  1  1  1  1  1  1  1  1  1  1  1  1  1  1  1  1  1  1  1  1  1  1 -1
  30   1  1  1  1  1  1  1  1  1  1  1  1  1  1  1  1  1  1  1  1  1  1  1  1  1  1  1  1  1  1  1  1  1  1  1  1  1  1  1 -1
  31   1  1  1  1  1  1  1  1  1  1  1  1  1  1  1  1  1  1  1  1  1  1  1  1  1  1  1  1  1  1  1  1  1  1  1  1  1  1  1 -1
  32   1  1  1  1  1  1  1  1  1  1  1  1  1  1  1  1  1  1  1  1  1  1  1  1  1  1  1  1  1  1  1  1  1  1  1  1  1  1  1 -1
  33   1  1  1  1  1  1  1  1  1  1  1  1  1  1  1  1  1  1  1  1  1  1  1  1  1  1  1  1  1  1  1  1  1  1  1  1  1  1  1 -1
  34   1  1  1  1  1  1  1  1  1  1  1  1  1  1  1  1  1  1  1  1  1  1  1  1  1  1  1  1  1  1  1  1  1  1  1  1  1  1  1 -1
  35   1  1  1  1  1  1  1  1  1  1  1  1  1  1  1  1  1  1  1  1  1  1  1  1  1  1  1  1  1  1  1  1  1  1  1  1  1  1  1 -1
  36   1  1  1  1  1  1  1  1  1  1  1  1  1  1  1  1  1  1  1  1  1  1  1  1  1  1  1  1  1  1  1  1  1  1  1  1  1  1  1 -1
  37   1  1  1  1  1  1  1  1  1  1  1  1  1  1  1  1  1  1  1  1  1  1  1  1  1  1  1  1  1  1  1  1  1  1  1  1  1  1  1 -1
  38   1  1  1  1  1  1  1  1  1  1  1  1  1  1  1  1  1  1  1  1  1  1  1  1  1  1  1  1  1  1  1  1  1  1  1  1  1  1  1 -1
  39   1  1  1  1  1  1  1  1  1  1  1  1  1  1  1  1  1  1  1  1  1  1  1  1  1  1  1  1  1  1  1  1  1  1  1  1  1  1  1 -1
  40  -1 -1 -1 -1 -1 -1 -1 -1 -1 -1 -1 -1 -1 -1 -1 -1 -1 -1 -1 -1 -1 -1 -1 -1 -1 -1 -1 -1 -1 -1 -1 -1 -1 -1 -1 -1 -1 -1 -1 -1



                     BOUNDARY ARRAY FOR LAYER  14
 READING ON UNIT    2 WITH FORMAT: (20I4)              

       1  2  3  4  5  6  7  8  9 10 11 12 13 14 15 16 17 18 19 20 21 22 23 24 25 26 27 28 29 30 31 32 33 34 35 36 37 38 39 40
 ............................................................................................................................
   1   1  1  1  1  1  1  1  1  1  1  1  1  1  1  1  1  1  1  1  1  1  1  1  1  1  1  1  1  1  1  1  1  1  1  1  1  1  1  1 -1
   2   1  1  1  1  1  1  1  1  1  1  1  1  1  1  1  1  1  1  1  1  1  1  1  1  1  1  1  1  1  1  1  1  1  1  1  1  1  1  1 -1
   3   1  1  1  1  1  1  1  1  1  1  1  1  1  1  1  1  1  1  1  1  1  1  1  1  1  1  1  1  1  1  1  1  1  1  1  1  1  1  1 -1
   4   1  1  1  1  1  1  1  1  1  1  1  1  1  1  1  1  1  1  1  1  1  1  1  1  1  1  1  1  1  1  1  1  1  1  1  1  1  1  1 -1
   5   1  1  1  1  1  1  1  1  1  1  1  1  1  1  1  1  1  1  1  1  1  1  1  1  1  1  1  1  1  1  1  1  1  1  1  1  1  1  1 -1
   6   1  1  1  1  1  1  1  1  1  1  1  1  1  1  1  1  1  1  1  1  1  1  1  1  1  1  1  1  1  1  1  1  1  1  1  1  1  1  1 -1
   7   1  1  1  1  1  1  1  1  1  1  1  1  1  1  1  1  1  1  1  1  1  1  1  1  1  1  1  1  1  1  1  1  1  1  1  1  1  1  1 -1
   8   1  1  1  1  1  1  1  1  1  1  1  1  1  1  1  1  1  1  1  1  1  1  1  1  1  1  1  1  1  1  1  1  1  1  1  1  1  1  1 -1
   9   1  1  1  1  1  1  1  1  1  1  1  1  1  1  1  1  1  1  1  1  1  1  1  1  1  1  1  1  1  1  1  1  1  1  1  1  1  1  1 -1
  10   1  1  1  1  1  1  1  1  1  1  1  1  1  1  1  1  1  1  1  1  1  1  1  1  1  1  1  1  1  1  1  1  1  1  1  1  1  1  1 -1
  11   1  1  1  1  1  1  1  1  1  1  1  1  1  1  1  1  1  1  1  1  1  1  1  1  1  1  1  1  1  1  1  1  1  1  1  1  1  1  1 -1
  12   1  1  1  1  1  1  1  1  1  1  1  1  1  1  1  1  1  1  1  1  1  1  1  1  1  1  1  1  1  1  1  1  1  1  1  1  1  1  1 -1
  13   1  1  1  1  1  1  1  1  1  1  1  1  1  1  1  1  1  1  1  1  1  1  1  1  1  1  1  1  1  1  1  1  1  1  1  1  1  1  1 -1
  14   1  1  1  1  1  1  1  1  1  1  1  1  1  1  1  1  1  1  1  1  1  1  1  1  1  1  1  1  1  1  1  1  1  1  1  1  1  1  1 -1
  15   1  1  1  1  1  1  1  1  1  1  1  1  1  1  1  1  1  1  1  1  1  1  1  1  1  1  1  1  1  1  1  1  1  1  1  1  1  1  1 -1
  16   1  1  1  1  1  1  1  1  1  1  1  1  1  1  1  1  1  1  1  1  1  1  1  1  1  1  1  1  1  1  1  1  1  1  1  1  1  1  1 -1
  17   1  1  1  1  1  1  1  1  1  1  1  1  1  1  1  1  1  1  1  1  1  1  1  1  1  1  1  1  1  1  1  1  1  1  1  1  1  1  1 -1
  18   1  1  1  1  1  1  1  1  1  1  1  1  1  1  1  1  1  1  1  1  1  1  1  1  1  1  1  1  1  1  1  1  1  1  1  1  1  1  1 -1
  19   1  1  1  1  1  1  1  1  1  1  1  1  1  1  1  1  1  1  1  1  1  1  1  1  1  1  1  1  1  1  1  1  1  1  1  1  1  1  1 -1
  20   1  1  1  1  1  1  1  1  1  1  1  1  1  1  1  1  1  1  1  1  1  1  1  1  1  1  1  1  1  1  1  1  1  1  1  1  1  1  1 -1
  21   1  1  1  1  1  1  1  1  1  1  1  1  1  1  1  1  1  1  1  1  1  1  1  1  1  1  1  1  1  1  1  1  1  1  1  1  1  1  1 -1
  22   1  1  1  1  1  1  1  1  1  1  1  1  1  1  1  1  1  1  1  1  1  1  1  1  1  1  1  1  1  1  1  1  1  1  1  1  1  1  1 -1
  23   1  1  1  1  1  1  1  1  1  1  1  1  1  1  1  1  1  1  1  1  1  1  1  1  1  1  1  1  1  1  1  1  1  1  1  1  1  1  1 -1
  24   1  1  1  1  1  1  1  1  1  1  1  1  1  1  1  1  1  1  1  1  1  1  1  1  1  1  1  1  1  1  1  1  1  1  1  1  1  1  1 -1
  25   1  1  1  1  1  1  1  1  1  1  1  1  1  1  1  1  1  1  1  1  1  1  1  1  1  1  1  1  1  1  1  1  1  1  1  1  1  1  1 -1
  26   1  1  1  1  1  1  1  1  1  1  1  1  1  1  1  1  1  1  1  1  1  1  1  1  1  1  1  1  1  1  1  1  1  1  1  1  1  1  1 -1
  27   1  1  1  1  1  1  1  1  1  1  1  1  1  1  1  1  1  1  1  1  1  1  1  1  1  1  1  1  1  1  1  1  1  1  1  1  1  1  1 -1
  28   1  1  1  1  1  1  1  1  1  1  1  1  1  1  1  1  1  1  1  1  1  1  1  1  1  1  1  1  1  1  1  1  1  1  1  1  1  1  1 -1
  29   1  1  1  1  1  1  1  1  1  1  1  1  1  1  1  1  1  1  1  1  1  1  1  1  1  1  1  1  1  1  1  1  1  1  1  1  1  1  1 -1
  30   1  1  1  1  1  1  1  1  1  1  1  1  1  1  1  1  1  1  1  1  1  1  1  1  1  1  1  1  1  1  1  1  1  1  1  1  1  1  1 -1
  31   1  1  1  1  1  1  1  1  1  1  1  1  1  1  1  1  1  1  1  1  1  1  1  1  1  1  1  1  1  1  1  1  1  1  1  1  1  1  1 -1
  32   1  1  1  1  1  1  1  1  1  1  1  1  1  1  1  1  1  1  1  1  1  1  1  1  1  1  1  1  1  1  1  1  1  1  1  1  1  1  1 -1
  33   1  1  1  1  1  1  1  1  1  1  1  1  1  1  1  1  1  1  1  1  1  1  1  1  1  1  1  1  1  1  1  1  1  1  1  1  1  1  1 -1
  34   1  1  1  1  1  1  1  1  1  1  1  1  1  1  1  1  1  1  1  1  1  1  1  1  1  1  1  1  1  1  1  1  1  1  1  1  1  1  1 -1
  35   1  1  1  1  1  1  1  1  1  1  1  1  1  1  1  1  1  1  1  1  1  1  1  1  1  1  1  1  1  1  1  1  1  1  1  1  1  1  1 -1
  36   1  1  1  1  1  1  1  1  1  1  1  1  1  1  1  1  1  1  1  1  1  1  1  1  1  1  1  1  1  1  1  1  1  1  1  1  1  1  1 -1
  37   1  1  1  1  1  1  1  1  1  1  1  1  1  1  1  1  1  1  1  1  1  1  1  1  1  1  1  1  1  1  1  1  1  1  1  1  1  1  1 -1
  38   1  1  1  1  1  1  1  1  1  1  1  1  1  1  1  1  1  1  1  1  1  1  1  1  1  1  1  1  1  1  1  1  1  1  1  1  1  1  1 -1
  39   1  1  1  1  1  1  1  1  1  1  1  1  1  1  1  1  1  1  1  1  1  1  1  1  1  1  1  1  1  1  1  1  1  1  1  1  1  1  1 -1
  40  -1 -1 -1 -1 -1 -1 -1 -1 -1 -1 -1 -1 -1 -1 -1 -1 -1 -1 -1 -1 -1 -1 -1 -1 -1 -1 -1 -1 -1 -1 -1 -1 -1 -1 -1 -1 -1 -1 -1 -1

 AQUIFER HEAD WILL BE SET TO  -99.900     AT ALL NO-FLOW NODES (IBOUND=0).

             INITIAL HEAD =   25.0000     FOR LAYER   1

             INITIAL HEAD =   25.0000     FOR LAYER   2

             INITIAL HEAD =   25.0000     FOR LAYER   3

             INITIAL HEAD =   25.0000     FOR LAYER   4

             INITIAL HEAD =   25.0000     FOR LAYER   5

             INITIAL HEAD =   25.0000     FOR LAYER   6

             INITIAL HEAD =   25.0000     FOR LAYER   7

             INITIAL HEAD =   25.0000     FOR LAYER   8

             INITIAL HEAD =   25.0000     FOR LAYER   9

             INITIAL HEAD =   25.0000     FOR LAYER  10

             INITIAL HEAD =   25.0000     FOR LAYER  11

             INITIAL HEAD =   25.0000     FOR LAYER  12

             INITIAL HEAD =   25.0000     FOR LAYER  13

             INITIAL HEAD =   25.0000     FOR LAYER  14

 OUTPUT CONTROL IS SPECIFIED ONLY AT TIME STEPS FOR WHICH OUTPUT IS DESIRED
 COMPACT CELL-BY-CELL BUDGET FILES WILL BE WRITTEN
 IBOUND WILL BE SAVED WITH FORMAT: (40I2)              
 HEAD PRINT FORMAT CODE IS  12    DRAWDOWN PRINT FORMAT CODE IS   9
 HEADS WILL BE SAVED ON UNIT   30    DRAWDOWNS WILL BE SAVED ON UNIT    0

 LPF -- LAYER-PROPERTY FLOW PACKAGE, VERSION 7, 5/2/2005
         INPUT READ FROM UNIT   34
 CELL-BY-CELL FLOWS WILL BE SAVED ON UNIT   32
 HEAD AT CELLS THAT CONVERT TO DRY=  -99.900    
 No named parameters
 CONSTANTCV OPTION:
 Constant vertical conductance for convertible layers

   LAYER FLAGS:
 LAYER       LAYTYP        LAYAVG         CHANI        LAYVKA        LAYWET
 ---------------------------------------------------------------------------
    1             1             0     1.000E+00             0            -1
    2             1             0     1.000E+00             0            -1
    3             1             0     1.000E+00             0            -1
    4             1             0     1.000E+00             0            -1
    5             1             0     1.000E+00             0            -1
    6             1             0     1.000E+00             0            -1
    7             1             0     1.000E+00             0            -1
    8             1             0     1.000E+00             0            -1
    9             1             0     1.000E+00             0            -1
   10             0             0     1.000E+00             0             0
   11             0             0     1.000E+00             0             0
   12             0             0     1.000E+00             0             0
   13             0             0     1.000E+00             0             0
   14             0             0     1.000E+00             0             0

   INTERPRETATION OF LAYER FLAGS:
                        INTERBLOCK     HORIZONTAL    DATA IN
         LAYER TYPE   TRANSMISSIVITY   ANISOTROPY   ARRAY VKA   WETTABILITY
 LAYER      (LAYTYP)      (LAYAVG)       (CHANI)      (LAYVKA)      (LAYWET)
 ---------------------------------------------------------------------------
    1   CONVERTIBLE      HARMONIC     1.000E+00    VERTICAL K      WETTABLE
    2   CONVERTIBLE      HARMONIC     1.000E+00    VERTICAL K      WETTABLE
    3   CONVERTIBLE      HARMONIC     1.000E+00    VERTICAL K      WETTABLE
    4   CONVERTIBLE      HARMONIC     1.000E+00    VERTICAL K      WETTABLE
    5   CONVERTIBLE      HARMONIC     1.000E+00    VERTICAL K      WETTABLE
    6   CONVERTIBLE      HARMONIC     1.000E+00    VERTICAL K      WETTABLE
    7   CONVERTIBLE      HARMONIC     1.000E+00    VERTICAL K      WETTABLE
    8   CONVERTIBLE      HARMONIC     1.000E+00    VERTICAL K      WETTABLE
    9   CONVERTIBLE      HARMONIC     1.000E+00    VERTICAL K      WETTABLE
   10      CONFINED      HARMONIC     1.000E+00    VERTICAL K  NON-WETTABLE
   11      CONFINED      HARMONIC     1.000E+00    VERTICAL K  NON-WETTABLE
   12      CONFINED      HARMONIC     1.000E+00    VERTICAL K  NON-WETTABLE
   13      CONFINED      HARMONIC     1.000E+00    VERTICAL K  NON-WETTABLE
   14      CONFINED      HARMONIC     1.000E+00    VERTICAL K  NON-WETTABLE

 WETTING CAPABILITY IS ACTIVE IN   9 LAYERS
  WETTING FACTOR=  0.5000000    
  WETTING ITERATION INTERVAL=           1
  IHDWET=           1

    HYD. COND. ALONG ROWS =   5.00000     FOR LAYER   1

      VERTICAL HYD. COND. =  0.250000     FOR LAYER   1

         SPECIFIC STORAGE =  2.000000E-04 FOR LAYER   1

           SPECIFIC YIELD =  0.200000     FOR LAYER   1

         WETDRY PARAMETER = -0.500000     FOR LAYER   1

    HYD. COND. ALONG ROWS =   5.00000     FOR LAYER   2

      VERTICAL HYD. COND. =  0.250000     FOR LAYER   2

         SPECIFIC STORAGE =  2.000000E-04 FOR LAYER   2

           SPECIFIC YIELD =  0.200000     FOR LAYER   2

         WETDRY PARAMETER = -0.500000     FOR LAYER   2

    HYD. COND. ALONG ROWS =   5.00000     FOR LAYER   3

      VERTICAL HYD. COND. =  0.250000     FOR LAYER   3

         SPECIFIC STORAGE =  2.000000E-04 FOR LAYER   3

           SPECIFIC YIELD =  0.200000     FOR LAYER   3

         WETDRY PARAMETER = -0.500000     FOR LAYER   3

    HYD. COND. ALONG ROWS =   5.00000     FOR LAYER   4

      VERTICAL HYD. COND. =  0.250000     FOR LAYER   4

         SPECIFIC STORAGE =  2.000000E-04 FOR LAYER   4

           SPECIFIC YIELD =  0.200000     FOR LAYER   4

         WETDRY PARAMETER = -0.500000     FOR LAYER   4

    HYD. COND. ALONG ROWS =   5.00000     FOR LAYER   5

      VERTICAL HYD. COND. =  0.250000     FOR LAYER   5

         SPECIFIC STORAGE =  2.000000E-04 FOR LAYER   5

           SPECIFIC YIELD =  0.200000     FOR LAYER   5

         WETDRY PARAMETER = -0.500000     FOR LAYER   5

    HYD. COND. ALONG ROWS =   5.00000     FOR LAYER   6

      VERTICAL HYD. COND. =  0.250000     FOR LAYER   6

         SPECIFIC STORAGE =  2.000000E-04 FOR LAYER   6

           SPECIFIC YIELD =  0.200000     FOR LAYER   6

         WETDRY PARAMETER = -0.500000     FOR LAYER   6

    HYD. COND. ALONG ROWS =   5.00000     FOR LAYER   7

      VERTICAL HYD. COND. =  0.250000     FOR LAYER   7

         SPECIFIC STORAGE =  2.000000E-04 FOR LAYER   7

           SPECIFIC YIELD =  0.200000     FOR LAYER   7

         WETDRY PARAMETER = -0.500000     FOR LAYER   7

    HYD. COND. ALONG ROWS =   5.00000     FOR LAYER   8

      VERTICAL HYD. COND. =  0.250000     FOR LAYER   8

         SPECIFIC STORAGE =  2.000000E-04 FOR LAYER   8

           SPECIFIC YIELD =  0.200000     FOR LAYER   8

         WETDRY PARAMETER = -0.500000     FOR LAYER   8

    HYD. COND. ALONG ROWS =   5.00000     FOR LAYER   9

      VERTICAL HYD. COND. =  0.250000     FOR LAYER   9

         SPECIFIC STORAGE =  2.000000E-04 FOR LAYER   9

           SPECIFIC YIELD =  0.200000     FOR LAYER   9

         WETDRY PARAMETER = -0.500000     FOR LAYER   9

    HYD. COND. ALONG ROWS =   5.00000     FOR LAYER  10

      VERTICAL HYD. COND. =  0.250000     FOR LAYER  10

         SPECIFIC STORAGE =  2.000000E-04 FOR LAYER  10

    HYD. COND. ALONG ROWS =   5.00000     FOR LAYER  11

      VERTICAL HYD. COND. =  0.250000     FOR LAYER  11

         SPECIFIC STORAGE =  2.000000E-04 FOR LAYER  11

    HYD. COND. ALONG ROWS =   5.00000     FOR LAYER  12

      VERTICAL HYD. COND. =  0.250000     FOR LAYER  12

         SPECIFIC STORAGE =  2.000000E-04 FOR LAYER  12

    HYD. COND. ALONG ROWS =   5.00000     FOR LAYER  13

      VERTICAL HYD. COND. =  0.250000     FOR LAYER  13

         SPECIFIC STORAGE =  2.000000E-04 FOR LAYER  13

    HYD. COND. ALONG ROWS =   5.00000     FOR LAYER  14

      VERTICAL HYD. COND. =  0.250000     FOR LAYER  14

         SPECIFIC STORAGE =  2.000000E-04 FOR LAYER  14

 RCH -- RECHARGE PACKAGE, VERSION 7, 5/2/2005 INPUT READ FROM UNIT   18
 No named parameters
 OPTION 3 -- RECHARGE TO HIGHEST ACTIVE NODE IN EACH VERTICAL COLUMN
 CELL-BY-CELL FLOWS WILL BE SAVED ON UNIT   32


     0 Recharge parameters

 PCG -- CONJUGATE-GRADIENT SOLUTION PACKAGE, VERSION 7, 5/2/2005
 MAXIMUM OF     40 CALLS OF SOLUTION ROUTINE
 MAXIMUM OF     20 INTERNAL ITERATIONS PER CALL TO SOLUTION ROUTINE
 MATRIX PRECONDITIONING TYPE :    1



                                    SOLUTION BY THE CONJUGATE-GRADIENT METHOD
                                   -------------------------------------------
                    MAXIMUM NUMBER OF CALLS TO PCG ROUTINE =       40
                        MAXIMUM ITERATIONS PER CALL TO PCG =       20
                               MATRIX PRECONDITIONING TYPE =        1
        RELAXATION FACTOR (ONLY USED WITH PRECOND. TYPE 1) =    0.10000E+01
 PARAMETER OF POLYNOMIAL PRECOND. = 2 (2) OR IS CALCULATED :        2
                         HEAD CHANGE CRITERION FOR CLOSURE =    0.10000E-03
                     RESIDUAL CHANGE CRITERION FOR CLOSURE =    0.10000E+04
            PCG HEAD AND RESIDUAL CHANGE PRINTOUT INTERVAL =        1
     PRINTING FROM SOLVER IS LIMITED(1) OR SUPPRESSED (>1) =        0
                            STEADY-STATE DAMPING PARAMETER =    0.10000E+01
                               TRANSIENT DAMPING PARAMETER =    0.10000E+01
1
                            STRESS PERIOD NO.    1, LENGTH =   190.0000    
                            -----------------------------------------------

                              NUMBER OF TIME STEPS =    10

                               MULTIPLIER FOR DELT =     1.000

                            INITIAL TIME STEP SIZE =   19.00000    



                           RECHARGE
 READING ON UNIT   18 WITH FORMAT: (10F10.0)           

         1     2     3     4     5     6     7     8     9    10    11    12    13    14    15    16    17    18    19    20
        21    22    23    24    25    26    27    28    29    30    31    32    33    34    35    36    37    38    39    40
 ...........................................................................................................................
   1   0.05  0.05  0.00  0.00  0.00  0.00  0.00  0.00  0.00  0.00  0.00  0.00  0.00  0.00  0.00  0.00  0.00  0.00  0.00  0.00
       0.00  0.00  0.00  0.00  0.00  0.00  0.00  0.00  0.00  0.00  0.00  0.00  0.00  0.00  0.00  0.00  0.00  0.00  0.00  0.00
   2   0.05  0.05  0.00  0.00  0.00  0.00  0.00  0.00  0.00  0.00  0.00  0.00  0.00  0.00  0.00  0.00  0.00  0.00  0.00  0.00
       0.00  0.00  0.00  0.00  0.00  0.00  0.00  0.00  0.00  0.00  0.00  0.00  0.00  0.00  0.00  0.00  0.00  0.00  0.00  0.00
   3   0.00  0.00  0.00  0.00  0.00  0.00  0.00  0.00  0.00  0.00  0.00  0.00  0.00  0.00  0.00  0.00  0.00  0.00  0.00  0.00
       0.00  0.00  0.00  0.00  0.00  0.00  0.00  0.00  0.00  0.00  0.00  0.00  0.00  0.00  0.00  0.00  0.00  0.00  0.00  0.00
   4   0.00  0.00  0.00  0.00  0.00  0.00  0.00  0.00  0.00  0.00  0.00  0.00  0.00  0.00  0.00  0.00  0.00  0.00  0.00  0.00
       0.00  0.00  0.00  0.00  0.00  0.00  0.00  0.00  0.00  0.00  0.00  0.00  0.00  0.00  0.00  0.00  0.00  0.00  0.00  0.00
   5   0.00  0.00  0.00  0.00  0.00  0.00  0.00  0.00  0.00  0.00  0.00  0.00  0.00  0.00  0.00  0.00  0.00  0.00  0.00  0.00
       0.00  0.00  0.00  0.00  0.00  0.00  0.00  0.00  0.00  0.00  0.00  0.00  0.00  0.00  0.00  0.00  0.00  0.00  0.00  0.00
   6   0.00  0.00  0.00  0.00  0.00  0.00  0.00  0.00  0.00  0.00  0.00  0.00  0.00  0.00  0.00  0.00  0.00  0.00  0.00  0.00
       0.00  0.00  0.00  0.00  0.00  0.00  0.00  0.00  0.00  0.00  0.00  0.00  0.00  0.00  0.00  0.00  0.00  0.00  0.00  0.00
   7   0.00  0.00  0.00  0.00  0.00  0.00  0.00  0.00  0.00  0.00  0.00  0.00  0.00  0.00  0.00  0.00  0.00  0.00  0.00  0.00
       0.00  0.00  0.00  0.00  0.00  0.00  0.00  0.00  0.00  0.00  0.00  0.00  0.00  0.00  0.00  0.00  0.00  0.00  0.00  0.00
   8   0.00  0.00  0.00  0.00  0.00  0.00  0.00  0.00  0.00  0.00  0.00  0.00  0.00  0.00  0.00  0.00  0.00  0.00  0.00  0.00
       0.00  0.00  0.00  0.00  0.00  0.00  0.00  0.00  0.00  0.00  0.00  0.00  0.00  0.00  0.00  0.00  0.00  0.00  0.00  0.00
   9   0.00  0.00  0.00  0.00  0.00  0.00  0.00  0.00  0.00  0.00  0.00  0.00  0.00  0.00  0.00  0.00  0.00  0.00  0.00  0.00
       0.00  0.00  0.00  0.00  0.00  0.00  0.00  0.00  0.00  0.00  0.00  0.00  0.00  0.00  0.00  0.00  0.00  0.00  0.00  0.00
  10   0.00  0.00  0.00  0.00  0.00  0.00  0.00  0.00  0.00  0.00  0.00  0.00  0.00  0.00  0.00  0.00  0.00  0.00  0.00  0.00
       0.00  0.00  0.00  0.00  0.00  0.00  0.00  0.00  0.00  0.00  0.00  0.00  0.00  0.00  0.00  0.00  0.00  0.00  0.00  0.00
  11   0.00  0.00  0.00  0.00  0.00  0.00  0.00  0.00  0.00  0.00  0.00  0.00  0.00  0.00  0.00  0.00  0.00  0.00  0.00  0.00
       0.00  0.00  0.00  0.00  0.00  0.00  0.00  0.00  0.00  0.00  0.00  0.00  0.00  0.00  0.00  0.00  0.00  0.00  0.00  0.00
  12   0.00  0.00  0.00  0.00  0.00  0.00  0.00  0.00  0.00  0.00  0.00  0.00  0.00  0.00  0.00  0.00  0.00  0.00  0.00  0.00
       0.00  0.00  0.00  0.00  0.00  0.00  0.00  0.00  0.00  0.00  0.00  0.00  0.00  0.00  0.00  0.00  0.00  0.00  0.00  0.00
  13   0.00  0.00  0.00  0.00  0.00  0.00  0.00  0.00  0.00  0.00  0.00  0.00  0.00  0.00  0.00  0.00  0.00  0.00  0.00  0.00
       0.00  0.00  0.00  0.00  0.00  0.00  0.00  0.00  0.00  0.00  0.00  0.00  0.00  0.00  0.00  0.00  0.00  0.00  0.00  0.00
  14   0.00  0.00  0.00  0.00  0.00  0.00  0.00  0.00  0.00  0.00  0.00  0.00  0.00  0.00  0.00  0.00  0.00  0.00  0.00  0.00
       0.00  0.00  0.00  0.00  0.00  0.00  0.00  0.00  0.00  0.00  0.00  0.00  0.00  0.00  0.00  0.00  0.00  0.00  0.00  0.00
  15   0.00  0.00  0.00  0.00  0.00  0.00  0.00  0.00  0.00  0.00  0.00  0.00  0.00  0.00  0.00  0.00  0.00  0.00  0.00  0.00
       0.00  0.00  0.00  0.00  0.00  0.00  0.00  0.00  0.00  0.00  0.00  0.00  0.00  0.00  0.00  0.00  0.00  0.00  0.00  0.00
  16   0.00  0.00  0.00  0.00  0.00  0.00  0.00  0.00  0.00  0.00  0.00  0.00  0.00  0.00  0.00  0.00  0.00  0.00  0.00  0.00
       0.00  0.00  0.00  0.00  0.00  0.00  0.00  0.00  0.00  0.00  0.00  0.00  0.00  0.00  0.00  0.00  0.00  0.00  0.00  0.00
  17   0.00  0.00  0.00  0.00  0.00  0.00  0.00  0.00  0.00  0.00  0.00  0.00  0.00  0.00  0.00  0.00  0.00  0.00  0.00  0.00
       0.00  0.00  0.00  0.00  0.00  0.00  0.00  0.00  0.00  0.00  0.00  0.00  0.00  0.00  0.00  0.00  0.00  0.00  0.00  0.00
  18   0.00  0.00  0.00  0.00  0.00  0.00  0.00  0.00  0.00  0.00  0.00  0.00  0.00  0.00  0.00  0.00  0.00  0.00  0.00  0.00
       0.00  0.00  0.00  0.00  0.00  0.00  0.00  0.00  0.00  0.00  0.00  0.00  0.00  0.00  0.00  0.00  0.00  0.00  0.00  0.00
  19   0.00  0.00  0.00  0.00  0.00  0.00  0.00  0.00  0.00  0.00  0.00  0.00  0.00  0.00  0.00  0.00  0.00  0.00  0.00  0.00
       0.00  0.00  0.00  0.00  0.00  0.00  0.00  0.00  0.00  0.00  0.00  0.00  0.00  0.00  0.00  0.00  0.00  0.00  0.00  0.00
  20   0.00  0.00  0.00  0.00  0.00  0.00  0.00  0.00  0.00  0.00  0.00  0.00  0.00  0.00  0.00  0.00  0.00  0.00  0.00  0.00
       0.00  0.00  0.00  0.00  0.00  0.00  0.00  0.00  0.00  0.00  0.00  0.00  0.00  0.00  0.00  0.00  0.00  0.00  0.00  0.00
  21   0.00  0.00  0.00  0.00  0.00  0.00  0.00  0.00  0.00  0.00  0.00  0.00  0.00  0.00  0.00  0.00  0.00  0.00  0.00  0.00
       0.00  0.00  0.00  0.00  0.00  0.00  0.00  0.00  0.00  0.00  0.00  0.00  0.00  0.00  0.00  0.00  0.00  0.00  0.00  0.00
  22   0.00  0.00  0.00  0.00  0.00  0.00  0.00  0.00  0.00  0.00  0.00  0.00  0.00  0.00  0.00  0.00  0.00  0.00  0.00  0.00
       0.00  0.00  0.00  0.00  0.00  0.00  0.00  0.00  0.00  0.00  0.00  0.00  0.00  0.00  0.00  0.00  0.00  0.00  0.00  0.00
  23   0.00  0.00  0.00  0.00  0.00  0.00  0.00  0.00  0.00  0.00  0.00  0.00  0.00  0.00  0.00  0.00  0.00  0.00  0.00  0.00
       0.00  0.00  0.00  0.00  0.00  0.00  0.00  0.00  0.00  0.00  0.00  0.00  0.00  0.00  0.00  0.00  0.00  0.00  0.00  0.00
  24   0.00  0.00  0.00  0.00  0.00  0.00  0.00  0.00  0.00  0.00  0.00  0.00  0.00  0.00  0.00  0.00  0.00  0.00  0.00  0.00
       0.00  0.00  0.00  0.00  0.00  0.00  0.00  0.00  0.00  0.00  0.00  0.00  0.00  0.00  0.00  0.00  0.00  0.00  0.00  0.00
  25   0.00  0.00  0.00  0.00  0.00  0.00  0.00  0.00  0.00  0.00  0.00  0.00  0.00  0.00  0.00  0.00  0.00  0.00  0.00  0.00
       0.00  0.00  0.00  0.00  0.00  0.00  0.00  0.00  0.00  0.00  0.00  0.00  0.00  0.00  0.00  0.00  0.00  0.00  0.00  0.00
  26   0.00  0.00  0.00  0.00  0.00  0.00  0.00  0.00  0.00  0.00  0.00  0.00  0.00  0.00  0.00  0.00  0.00  0.00  0.00  0.00
       0.00  0.00  0.00  0.00  0.00  0.00  0.00  0.00  0.00  0.00  0.00  0.00  0.00  0.00  0.00  0.00  0.00  0.00  0.00  0.00
  27   0.00  0.00  0.00  0.00  0.00  0.00  0.00  0.00  0.00  0.00  0.00  0.00  0.00  0.00  0.00  0.00  0.00  0.00  0.00  0.00
       0.00  0.00  0.00  0.00  0.00  0.00  0.00  0.00  0.00  0.00  0.00  0.00  0.00  0.00  0.00  0.00  0.00  0.00  0.00  0.00
  28   0.00  0.00  0.00  0.00  0.00  0.00  0.00  0.00  0.00  0.00  0.00  0.00  0.00  0.00  0.00  0.00  0.00  0.00  0.00  0.00
       0.00  0.00  0.00  0.00  0.00  0.00  0.00  0.00  0.00  0.00  0.00  0.00  0.00  0.00  0.00  0.00  0.00  0.00  0.00  0.00
  29   0.00  0.00  0.00  0.00  0.00  0.00  0.00  0.00  0.00  0.00  0.00  0.00  0.00  0.00  0.00  0.00  0.00  0.00  0.00  0.00
       0.00  0.00  0.00  0.00  0.00  0.00  0.00  0.00  0.00  0.00  0.00  0.00  0.00  0.00  0.00  0.00  0.00  0.00  0.00  0.00
  30   0.00  0.00  0.00  0.00  0.00  0.00  0.00  0.00  0.00  0.00  0.00  0.00  0.00  0.00  0.00  0.00  0.00  0.00  0.00  0.00
       0.00  0.00  0.00  0.00  0.00  0.00  0.00  0.00  0.00  0.00  0.00  0.00  0.00  0.00  0.00  0.00  0.00  0.00  0.00  0.00
  31   0.00  0.00  0.00  0.00  0.00  0.00  0.00  0.00  0.00  0.00  0.00  0.00  0.00  0.00  0.00  0.00  0.00  0.00  0.00  0.00
       0.00  0.00  0.00  0.00  0.00  0.00  0.00  0.00  0.00  0.00  0.00  0.00  0.00  0.00  0.00  0.00  0.00  0.00  0.00  0.00
  32   0.00  0.00  0.00  0.00  0.00  0.00  0.00  0.00  0.00  0.00  0.00  0.00  0.00  0.00  0.00  0.00  0.00  0.00  0.00  0.00
       0.00  0.00  0.00  0.00  0.00  0.00  0.00  0.00  0.00  0.00  0.00  0.00  0.00  0.00  0.00  0.00  0.00  0.00  0.00  0.00
  33   0.00  0.00  0.00  0.00  0.00  0.00  0.00  0.00  0.00  0.00  0.00  0.00  0.00  0.00  0.00  0.00  0.00  0.00  0.00  0.00
       0.00  0.00  0.00  0.00  0.00  0.00  0.00  0.00  0.00  0.00  0.00  0.00  0.00  0.00  0.00  0.00  0.00  0.00  0.00  0.00
  34   0.00  0.00  0.00  0.00  0.00  0.00  0.00  0.00  0.00  0.00  0.00  0.00  0.00  0.00  0.00  0.00  0.00  0.00  0.00  0.00
       0.00  0.00  0.00  0.00  0.00  0.00  0.00  0.00  0.00  0.00  0.00  0.00  0.00  0.00  0.00  0.00  0.00  0.00  0.00  0.00
  35   0.00  0.00  0.00  0.00  0.00  0.00  0.00  0.00  0.00  0.00  0.00  0.00  0.00  0.00  0.00  0.00  0.00  0.00  0.00  0.00
       0.00  0.00  0.00  0.00  0.00  0.00  0.00  0.00  0.00  0.00  0.00  0.00  0.00  0.00  0.00  0.00  0.00  0.00  0.00  0.00
  36   0.00  0.00  0.00  0.00  0.00  0.00  0.00  0.00  0.00  0.00  0.00  0.00  0.00  0.00  0.00  0.00  0.00  0.00  0.00  0.00
       0.00  0.00  0.00  0.00  0.00  0.00  0.00  0.00  0.00  0.00  0.00  0.00  0.00  0.00  0.00  0.00  0.00  0.00  0.00  0.00
  37   0.00  0.00  0.00  0.00  0.00  0.00  0.00  0.00  0.00  0.00  0.00  0.00  0.00  0.00  0.00  0.00  0.00  0.00  0.00  0.00
       0.00  0.00  0.00  0.00  0.00  0.00  0.00  0.00  0.00  0.00  0.00  0.00  0.00  0.00  0.00  0.00  0.00  0.00  0.00  0.00
  38   0.00  0.00  0.00  0.00  0.00  0.00  0.00  0.00  0.00  0.00  0.00  0.00  0.00  0.00  0.00  0.00  0.00  0.00  0.00  0.00
       0.00  0.00  0.00  0.00  0.00  0.00  0.00  0.00  0.00  0.00  0.00  0.00  0.00  0.00  0.00  0.00  0.00  0.00  0.00  0.00
  39   0.00  0.00  0.00  0.00  0.00  0.00  0.00  0.00  0.00  0.00  0.00  0.00  0.00  0.00  0.00  0.00  0.00  0.00  0.00  0.00
       0.00  0.00  0.00  0.00  0.00  0.00  0.00  0.00  0.00  0.00  0.00  0.00  0.00  0.00  0.00  0.00  0.00  0.00  0.00  0.00
  40   0.00  0.00  0.00  0.00  0.00  0.00  0.00  0.00  0.00  0.00  0.00  0.00  0.00  0.00  0.00  0.00  0.00  0.00  0.00  0.00
       0.00  0.00  0.00  0.00  0.00  0.00  0.00  0.00  0.00  0.00  0.00  0.00  0.00  0.00  0.00  0.00  0.00  0.00  0.00  0.00
 
 SOLVING FOR HEAD 

 CELL CONVERSIONS FOR ITER.=  1  LAYER=  1  STEP=  1  PERIOD=   1   (ROW,COL)
    DRY(  1,  1)   DRY(  1,  2)   DRY(  1,  3)   DRY(  1,  4)   DRY(  1,  5)   
    DRY(  1,  6)   DRY(  1,  7)   DRY(  1,  8)   DRY(  1,  9)   DRY(  1, 10)   
    DRY(  1, 11)   DRY(  1, 12)   DRY(  1, 13)   DRY(  1, 14)   DRY(  1, 15)   
    DRY(  1, 16)   DRY(  1, 17)   DRY(  1, 18)   DRY(  1, 19)   DRY(  1, 20)   
    DRY(  1, 21)   DRY(  1, 22)   DRY(  1, 23)   DRY(  1, 24)   DRY(  1, 25)   
    DRY(  1, 26)   DRY(  1, 27)   DRY(  1, 28)   DRY(  1, 29)   DRY(  1, 30)   
    DRY(  1, 31)   DRY(  1, 32)   DRY(  1, 33)   DRY(  1, 34)   DRY(  1, 35)   
    DRY(  1, 36)   DRY(  1, 37)   DRY(  1, 38)   DRY(  1, 39)   DRY(  1, 40)   
    DRY(  2,  1)   DRY(  2,  2)   DRY(  2,  3)   DRY(  2,  4)   DRY(  2,  5)   
    DRY(  2,  6)   DRY(  2,  7)   DRY(  2,  8)   DRY(  2,  9)   DRY(  2, 10)   
    DRY(  2, 11)   DRY(  2, 12)   DRY(  2, 13)   DRY(  2, 14)   DRY(  2, 15)   
    DRY(  2, 16)   DRY(  2, 17)   DRY(  2, 18)   DRY(  2, 19)   DRY(  2, 20)   
    DRY(  2, 21)   DRY(  2, 22)   DRY(  2, 23)   DRY(  2, 24)   DRY(  2, 25)   
    DRY(  2, 26)   DRY(  2, 27)   DRY(  2, 28)   DRY(  2, 29)   DRY(  2, 30)   
    DRY(  2, 31)   DRY(  2, 32)   DRY(  2, 33)   DRY(  2, 34)   DRY(  2, 35)   
    DRY(  2, 36)   DRY(  2, 37)   DRY(  2, 38)   DRY(  2, 39)   DRY(  2, 40)   
    DRY(  3,  1)   DRY(  3,  2)   DRY(  3,  3)   DRY(  3,  4)   DRY(  3,  5)   
    DRY(  3,  6)   DRY(  3,  7)   DRY(  3,  8)   DRY(  3,  9)   DRY(  3, 10)   
    DRY(  3, 11)   DRY(  3, 12)   DRY(  3, 13)   DRY(  3, 14)   DRY(  3, 15)   
    DRY(  3, 16)   DRY(  3, 17)   DRY(  3, 18)   DRY(  3, 19)   DRY(  3, 20)   
    DRY(  3, 21)   DRY(  3, 22)   DRY(  3, 23)   DRY(  3, 24)   DRY(  3, 25)   
    DRY(  3, 26)   DRY(  3, 27)   DRY(  3, 28)   DRY(  3, 29)   DRY(  3, 30)   
    DRY(  3, 31)   DRY(  3, 32)   DRY(  3, 33)   DRY(  3, 34)   DRY(  3, 35)   
    DRY(  3, 36)   DRY(  3, 37)   DRY(  3, 38)   DRY(  3, 39)   DRY(  3, 40)   
    DRY(  4,  1)   DRY(  4,  2)   DRY(  4,  3)   DRY(  4,  4)   DRY(  4,  5)   
    DRY(  4,  6)   DRY(  4,  7)   DRY(  4,  8)   DRY(  4,  9)   DRY(  4, 10)   
    DRY(  4, 11)   DRY(  4, 12)   DRY(  4, 13)   DRY(  4, 14)   DRY(  4, 15)   
    DRY(  4, 16)   DRY(  4, 17)   DRY(  4, 18)   DRY(  4, 19)   DRY(  4, 20)   
    DRY(  4, 21)   DRY(  4, 22)   DRY(  4, 23)   DRY(  4, 24)   DRY(  4, 25)   
    DRY(  4, 26)   DRY(  4, 27)   DRY(  4, 28)   DRY(  4, 29)   DRY(  4, 30)   
    DRY(  4, 31)   DRY(  4, 32)   DRY(  4, 33)   DRY(  4, 34)   DRY(  4, 35)   
    DRY(  4, 36)   DRY(  4, 37)   DRY(  4, 38)   DRY(  4, 39)   DRY(  4, 40)   
    DRY(  5,  1)   DRY(  5,  2)   DRY(  5,  3)   DRY(  5,  4)   DRY(  5,  5)   
    DRY(  5,  6)   DRY(  5,  7)   DRY(  5,  8)   DRY(  5,  9)   DRY(  5, 10)   
    DRY(  5, 11)   DRY(  5, 12)   DRY(  5, 13)   DRY(  5, 14)   DRY(  5, 15)   
    DRY(  5, 16)   DRY(  5, 17)   DRY(  5, 18)   DRY(  5, 19)   DRY(  5, 20)   
    DRY(  5, 21)   DRY(  5, 22)   DRY(  5, 23)   DRY(  5, 24)   DRY(  5, 25)   
    DRY(  5, 26)   DRY(  5, 27)   DRY(  5, 28)   DRY(  5, 29)   DRY(  5, 30)   
    DRY(  5, 31)   DRY(  5, 32)   DRY(  5, 33)   DRY(  5, 34)   DRY(  5, 35)   
    DRY(  5, 36)   DRY(  5, 37)   DRY(  5, 38)   DRY(  5, 39)   DRY(  5, 40)   
    DRY(  6,  1)   DRY(  6,  2)   DRY(  6,  3)   DRY(  6,  4)   DRY(  6,  5)   
    DRY(  6,  6)   DRY(  6,  7)   DRY(  6,  8)   DRY(  6,  9)   DRY(  6, 10)   
    DRY(  6, 11)   DRY(  6, 12)   DRY(  6, 13)   DRY(  6, 14)   DRY(  6, 15)   
    DRY(  6, 16)   DRY(  6, 17)   DRY(  6, 18)   DRY(  6, 19)   DRY(  6, 20)   
    DRY(  6, 21)   DRY(  6, 22)   DRY(  6, 23)   DRY(  6, 24)   DRY(  6, 25)   
    DRY(  6, 26)   DRY(  6, 27)   DRY(  6, 28)   DRY(  6, 29)   DRY(  6, 30)   
    DRY(  6, 31)   DRY(  6, 32)   DRY(  6, 33)   DRY(  6, 34)   DRY(  6, 35)   
    DRY(  6, 36)   DRY(  6, 37)   DRY(  6, 38)   DRY(  6, 39)   DRY(  6, 40)   
    DRY(  7,  1)   DRY(  7,  2)   DRY(  7,  3)   DRY(  7,  4)   DRY(  7,  5)   
    DRY(  7,  6)   DRY(  7,  7)   DRY(  7,  8)   DRY(  7,  9)   DRY(  7, 10)   
    DRY(  7, 11)   DRY(  7, 12)   DRY(  7, 13)   DRY(  7, 14)   DRY(  7, 15)   
    DRY(  7, 16)   DRY(  7, 17)   DRY(  7, 18)   DRY(  7, 19)   DRY(  7, 20)   
    DRY(  7, 21)   DRY(  7, 22)   DRY(  7, 23)   DRY(  7, 24)   DRY(  7, 25)   
    DRY(  7, 26)   DRY(  7, 27)   DRY(  7, 28)   DRY(  7, 29)   DRY(  7, 30)   
    DRY(  7, 31)   DRY(  7, 32)   DRY(  7, 33)   DRY(  7, 34)   DRY(  7, 35)   
    DRY(  7, 36)   DRY(  7, 37)   DRY(  7, 38)   DRY(  7, 39)   DRY(  7, 40)   
    DRY(  8,  1)   DRY(  8,  2)   DRY(  8,  3)   DRY(  8,  4)   DRY(  8,  5)   
    DRY(  8,  6)   DRY(  8,  7)   DRY(  8,  8)   DRY(  8,  9)   DRY(  8, 10)   
    DRY(  8, 11)   DRY(  8, 12)   DRY(  8, 13)   DRY(  8, 14)   DRY(  8, 15)   
    DRY(  8, 16)   DRY(  8, 17)   DRY(  8, 18)   DRY(  8, 19)   DRY(  8, 20)   
    DRY(  8, 21)   DRY(  8, 22)   DRY(  8, 23)   DRY(  8, 24)   DRY(  8, 25)   
    DRY(  8, 26)   DRY(  8, 27)   DRY(  8, 28)   DRY(  8, 29)   DRY(  8, 30)   
    DRY(  8, 31)   DRY(  8, 32)   DRY(  8, 33)   DRY(  8, 34)   DRY(  8, 35)   
    DRY(  8, 36)   DRY(  8, 37)   DRY(  8, 38)   DRY(  8, 39)   DRY(  8, 40)   
    DRY(  9,  1)   DRY(  9,  2)   DRY(  9,  3)   DRY(  9,  4)   DRY(  9,  5)   
    DRY(  9,  6)   DRY(  9,  7)   DRY(  9,  8)   DRY(  9,  9)   DRY(  9, 10)   
    DRY(  9, 11)   DRY(  9, 12)   DRY(  9, 13)   DRY(  9, 14)   DRY(  9, 15)   
    DRY(  9, 16)   DRY(  9, 17)   DRY(  9, 18)   DRY(  9, 19)   DRY(  9, 20)   
    DRY(  9, 21)   DRY(  9, 22)   DRY(  9, 23)   DRY(  9, 24)   DRY(  9, 25)   
    DRY(  9, 26)   DRY(  9, 27)   DRY(  9, 28)   DRY(  9, 29)   DRY(  9, 30)   
    DRY(  9, 31)   DRY(  9, 32)   DRY(  9, 33)   DRY(  9, 34)   DRY(  9, 35)   
    DRY(  9, 36)   DRY(  9, 37)   DRY(  9, 38)   DRY(  9, 39)   DRY(  9, 40)   
    DRY( 10,  1)   DRY( 10,  2)   DRY( 10,  3)   DRY( 10,  4)   DRY( 10,  5)   
    DRY( 10,  6)   DRY( 10,  7)   DRY( 10,  8)   DRY( 10,  9)   DRY( 10, 10)   
    DRY( 10, 11)   DRY( 10, 12)   DRY( 10, 13)   DRY( 10, 14)   DRY( 10, 15)   
    DRY( 10, 16)   DRY( 10, 17)   DRY( 10, 18)   DRY( 10, 19)   DRY( 10, 20)   
    DRY( 10, 21)   DRY( 10, 22)   DRY( 10, 23)   DRY( 10, 24)   DRY( 10, 25)   
    DRY( 10, 26)   DRY( 10, 27)   DRY( 10, 28)   DRY( 10, 29)   DRY( 10, 30)   
    DRY( 10, 31)   DRY( 10, 32)   DRY( 10, 33)   DRY( 10, 34)   DRY( 10, 35)   
    DRY( 10, 36)   DRY( 10, 37)   DRY( 10, 38)   DRY( 10, 39)   DRY( 10, 40)   
    DRY( 11,  1)   DRY( 11,  2)   DRY( 11,  3)   DRY( 11,  4)   DRY( 11,  5)   
    DRY( 11,  6)   DRY( 11,  7)   DRY( 11,  8)   DRY( 11,  9)   DRY( 11, 10)   
    DRY( 11, 11)   DRY( 11, 12)   DRY( 11, 13)   DRY( 11, 14)   DRY( 11, 15)   
    DRY( 11, 16)   DRY( 11, 17)   DRY( 11, 18)   DRY( 11, 19)   DRY( 11, 20)   
    DRY( 11, 21)   DRY( 11, 22)   DRY( 11, 23)   DRY( 11, 24)   DRY( 11, 25)   
    DRY( 11, 26)   DRY( 11, 27)   DRY( 11, 28)   DRY( 11, 29)   DRY( 11, 30)   
    DRY( 11, 31)   DRY( 11, 32)   DRY( 11, 33)   DRY( 11, 34)   DRY( 11, 35)   
    DRY( 11, 36)   DRY( 11, 37)   DRY( 11, 38)   DRY( 11, 39)   DRY( 11, 40)   
    DRY( 12,  1)   DRY( 12,  2)   DRY( 12,  3)   DRY( 12,  4)   DRY( 12,  5)   
    DRY( 12,  6)   DRY( 12,  7)   DRY( 12,  8)   DRY( 12,  9)   DRY( 12, 10)   
    DRY( 12, 11)   DRY( 12, 12)   DRY( 12, 13)   DRY( 12, 14)   DRY( 12, 15)   
    DRY( 12, 16)   DRY( 12, 17)   DRY( 12, 18)   DRY( 12, 19)   DRY( 12, 20)   
    DRY( 12, 21)   DRY( 12, 22)   DRY( 12, 23)   DRY( 12, 24)   DRY( 12, 25)   
    DRY( 12, 26)   DRY( 12, 27)   DRY( 12, 28)   DRY( 12, 29)   DRY( 12, 30)   
    DRY( 12, 31)   DRY( 12, 32)   DRY( 12, 33)   DRY( 12, 34)   DRY( 12, 35)   
    DRY( 12, 36)   DRY( 12, 37)   DRY( 12, 38)   DRY( 12, 39)   DRY( 12, 40)   
    DRY( 13,  1)   DRY( 13,  2)   DRY( 13,  3)   DRY( 13,  4)   DRY( 13,  5)   
    DRY( 13,  6)   DRY( 13,  7)   DRY( 13,  8)   DRY( 13,  9)   DRY( 13, 10)   
    DRY( 13, 11)   DRY( 13, 12)   DRY( 13, 13)   DRY( 13, 14)   DRY( 13, 15)   
    DRY( 13, 16)   DRY( 13, 17)   DRY( 13, 18)   DRY( 13, 19)   DRY( 13, 20)   
    DRY( 13, 21)   DRY( 13, 22)   DRY( 13, 23)   DRY( 13, 24)   DRY( 13, 25)   
    DRY( 13, 26)   DRY( 13, 27)   DRY( 13, 28)   DRY( 13, 29)   DRY( 13, 30)   
    DRY( 13, 31)   DRY( 13, 32)   DRY( 13, 33)   DRY( 13, 34)   DRY( 13, 35)   
    DRY( 13, 36)   DRY( 13, 37)   DRY( 13, 38)   DRY( 13, 39)   DRY( 13, 40)   
    DRY( 14,  1)   DRY( 14,  2)   DRY( 14,  3)   DRY( 14,  4)   DRY( 14,  5)   
    DRY( 14,  6)   DRY( 14,  7)   DRY( 14,  8)   DRY( 14,  9)   DRY( 14, 10)   
    DRY( 14, 11)   DRY( 14, 12)   DRY( 14, 13)   DRY( 14, 14)   DRY( 14, 15)   
    DRY( 14, 16)   DRY( 14, 17)   DRY( 14, 18)   DRY( 14, 19)   DRY( 14, 20)   
    DRY( 14, 21)   DRY( 14, 22)   DRY( 14, 23)   DRY( 14, 24)   DRY( 14, 25)   
    DRY( 14, 26)   DRY( 14, 27)   DRY( 14, 28)   DRY( 14, 29)   DRY( 14, 30)   
    DRY( 14, 31)   DRY( 14, 32)   DRY( 14, 33)   DRY( 14, 34)   DRY( 14, 35)   
    DRY( 14, 36)   DRY( 14, 37)   DRY( 14, 38)   DRY( 14, 39)   DRY( 14, 40)   
    DRY( 15,  1)   DRY( 15,  2)   DRY( 15,  3)   DRY( 15,  4)   DRY( 15,  5)   
    DRY( 15,  6)   DRY( 15,  7)   DRY( 15,  8)   DRY( 15,  9)   DRY( 15, 10)   
    DRY( 15, 11)   DRY( 15, 12)   DRY( 15, 13)   DRY( 15, 14)   DRY( 15, 15)   
    DRY( 15, 16)   DRY( 15, 17)   DRY( 15, 18)   DRY( 15, 19)   DRY( 15, 20)   
    DRY( 15, 21)   DRY( 15, 22)   DRY( 15, 23)   DRY( 15, 24)   DRY( 15, 25)   
    DRY( 15, 26)   DRY( 15, 27)   DRY( 15, 28)   DRY( 15, 29)   DRY( 15, 30)   
    DRY( 15, 31)   DRY( 15, 32)   DRY( 15, 33)   DRY( 15, 34)   DRY( 15, 35)   
    DRY( 15, 36)   DRY( 15, 37)   DRY( 15, 38)   DRY( 15, 39)   DRY( 15, 40)   
    DRY( 16,  1)   DRY( 16,  2)   DRY( 16,  3)   DRY( 16,  4)   DRY( 16,  5)   
    DRY( 16,  6)   DRY( 16,  7)   DRY( 16,  8)   DRY( 16,  9)   DRY( 16, 10)   
    DRY( 16, 11)   DRY( 16, 12)   DRY( 16, 13)   DRY( 16, 14)   DRY( 16, 15)   
    DRY( 16, 16)   DRY( 16, 17)   DRY( 16, 18)   DRY( 16, 19)   DRY( 16, 20)   
    DRY( 16, 21)   DRY( 16, 22)   DRY( 16, 23)   DRY( 16, 24)   DRY( 16, 25)   
    DRY( 16, 26)   DRY( 16, 27)   DRY( 16, 28)   DRY( 16, 29)   DRY( 16, 30)   
    DRY( 16, 31)   DRY( 16, 32)   DRY( 16, 33)   DRY( 16, 34)   DRY( 16, 35)   
    DRY( 16, 36)   DRY( 16, 37)   DRY( 16, 38)   DRY( 16, 39)   DRY( 16, 40)   
    DRY( 17,  1)   DRY( 17,  2)   DRY( 17,  3)   DRY( 17,  4)   DRY( 17,  5)   
    DRY( 17,  6)   DRY( 17,  7)   DRY( 17,  8)   DRY( 17,  9)   DRY( 17, 10)   
    DRY( 17, 11)   DRY( 17, 12)   DRY( 17, 13)   DRY( 17, 14)   DRY( 17, 15)   
    DRY( 17, 16)   DRY( 17, 17)   DRY( 17, 18)   DRY( 17, 19)   DRY( 17, 20)   
    DRY( 17, 21)   DRY( 17, 22)   DRY( 17, 23)   DRY( 17, 24)   DRY( 17, 25)   
    DRY( 17, 26)   DRY( 17, 27)   DRY( 17, 28)   DRY( 17, 29)   DRY( 17, 30)   
    DRY( 17, 31)   DRY( 17, 32)   DRY( 17, 33)   DRY( 17, 34)   DRY( 17, 35)   
    DRY( 17, 36)   DRY( 17, 37)   DRY( 17, 38)   DRY( 17, 39)   DRY( 17, 40)   
    DRY( 18,  1)   DRY( 18,  2)   DRY( 18,  3)   DRY( 18,  4)   DRY( 18,  5)   
    DRY( 18,  6)   DRY( 18,  7)   DRY( 18,  8)   DRY( 18,  9)   DRY( 18, 10)   
    DRY( 18, 11)   DRY( 18, 12)   DRY( 18, 13)   DRY( 18, 14)   DRY( 18, 15)   
    DRY( 18, 16)   DRY( 18, 17)   DRY( 18, 18)   DRY( 18, 19)   DRY( 18, 20)   
    DRY( 18, 21)   DRY( 18, 22)   DRY( 18, 23)   DRY( 18, 24)   DRY( 18, 25)   
    DRY( 18, 26)   DRY( 18, 27)   DRY( 18, 28)   DRY( 18, 29)   DRY( 18, 30)   
    DRY( 18, 31)   DRY( 18, 32)   DRY( 18, 33)   DRY( 18, 34)   DRY( 18, 35)   
    DRY( 18, 36)   DRY( 18, 37)   DRY( 18, 38)   DRY( 18, 39)   DRY( 18, 40)   
    DRY( 19,  1)   DRY( 19,  2)   DRY( 19,  3)   DRY( 19,  4)   DRY( 19,  5)   
    DRY( 19,  6)   DRY( 19,  7)   DRY( 19,  8)   DRY( 19,  9)   DRY( 19, 10)   
    DRY( 19, 11)   DRY( 19, 12)   DRY( 19, 13)   DRY( 19, 14)   DRY( 19, 15)   
    DRY( 19, 16)   DRY( 19, 17)   DRY( 19, 18)   DRY( 19, 19)   DRY( 19, 20)   
    DRY( 19, 21)   DRY( 19, 22)   DRY( 19, 23)   DRY( 19, 24)   DRY( 19, 25)   
    DRY( 19, 26)   DRY( 19, 27)   DRY( 19, 28)   DRY( 19, 29)   DRY( 19, 30)   
    DRY( 19, 31)   DRY( 19, 32)   DRY( 19, 33)   DRY( 19, 34)   DRY( 19, 35)   
    DRY( 19, 36)   DRY( 19, 37)   DRY( 19, 38)   DRY( 19, 39)   DRY( 19, 40)   
    DRY( 20,  1)   DRY( 20,  2)   DRY( 20,  3)   DRY( 20,  4)   DRY( 20,  5)   
    DRY( 20,  6)   DRY( 20,  7)   DRY( 20,  8)   DRY( 20,  9)   DRY( 20, 10)   
    DRY( 20, 11)   DRY( 20, 12)   DRY( 20, 13)   DRY( 20, 14)   DRY( 20, 15)   
    DRY( 20, 16)   DRY( 20, 17)   DRY( 20, 18)   DRY( 20, 19)   DRY( 20, 20)   
    DRY( 20, 21)   DRY( 20, 22)   DRY( 20, 23)   DRY( 20, 24)   DRY( 20, 25)   
    DRY( 20, 26)   DRY( 20, 27)   DRY( 20, 28)   DRY( 20, 29)   DRY( 20, 30)   
    DRY( 20, 31)   DRY( 20, 32)   DRY( 20, 33)   DRY( 20, 34)   DRY( 20, 35)   
    DRY( 20, 36)   DRY( 20, 37)   DRY( 20, 38)   DRY( 20, 39)   DRY( 20, 40)   
    DRY( 21,  1)   DRY( 21,  2)   DRY( 21,  3)   DRY( 21,  4)   DRY( 21,  5)   
    DRY( 21,  6)   DRY( 21,  7)   DRY( 21,  8)   DRY( 21,  9)   DRY( 21, 10)   
    DRY( 21, 11)   DRY( 21, 12)   DRY( 21, 13)   DRY( 21, 14)   DRY( 21, 15)   
    DRY( 21, 16)   DRY( 21, 17)   DRY( 21, 18)   DRY( 21, 19)   DRY( 21, 20)   
    DRY( 21, 21)   DRY( 21, 22)   DRY( 21, 23)   DRY( 21, 24)   DRY( 21, 25)   
    DRY( 21, 26)   DRY( 21, 27)   DRY( 21, 28)   DRY( 21, 29)   DRY( 21, 30)   
    DRY( 21, 31)   DRY( 21, 32)   DRY( 21, 33)   DRY( 21, 34)   DRY( 21, 35)   
    DRY( 21, 36)   DRY( 21, 37)   DRY( 21, 38)   DRY( 21, 39)   DRY( 21, 40)   
    DRY( 22,  1)   DRY( 22,  2)   DRY( 22,  3)   DRY( 22,  4)   DRY( 22,  5)   
    DRY( 22,  6)   DRY( 22,  7)   DRY( 22,  8)   DRY( 22,  9)   DRY( 22, 10)   
    DRY( 22, 11)   DRY( 22, 12)   DRY( 22, 13)   DRY( 22, 14)   DRY( 22, 15)   
    DRY( 22, 16)   DRY( 22, 17)   DRY( 22, 18)   DRY( 22, 19)   DRY( 22, 20)   
    DRY( 22, 21)   DRY( 22, 22)   DRY( 22, 23)   DRY( 22, 24)   DRY( 22, 25)   
    DRY( 22, 26)   DRY( 22, 27)   DRY( 22, 28)   DRY( 22, 29)   DRY( 22, 30)   
    DRY( 22, 31)   DRY( 22, 32)   DRY( 22, 33)   DRY( 22, 34)   DRY( 22, 35)   
    DRY( 22, 36)   DRY( 22, 37)   DRY( 22, 38)   DRY( 22, 39)   DRY( 22, 40)   
    DRY( 23,  1)   DRY( 23,  2)   DRY( 23,  3)   DRY( 23,  4)   DRY( 23,  5)   
    DRY( 23,  6)   DRY( 23,  7)   DRY( 23,  8)   DRY( 23,  9)   DRY( 23, 10)   
    DRY( 23, 11)   DRY( 23, 12)   DRY( 23, 13)   DRY( 23, 14)   DRY( 23, 15)   
    DRY( 23, 16)   DRY( 23, 17)   DRY( 23, 18)   DRY( 23, 19)   DRY( 23, 20)   
    DRY( 23, 21)   DRY( 23, 22)   DRY( 23, 23)   DRY( 23, 24)   DRY( 23, 25)   
    DRY( 23, 26)   DRY( 23, 27)   DRY( 23, 28)   DRY( 23, 29)   DRY( 23, 30)   
    DRY( 23, 31)   DRY( 23, 32)   DRY( 23, 33)   DRY( 23, 34)   DRY( 23, 35)   
    DRY( 23, 36)   DRY( 23, 37)   DRY( 23, 38)   DRY( 23, 39)   DRY( 23, 40)   
    DRY( 24,  1)   DRY( 24,  2)   DRY( 24,  3)   DRY( 24,  4)   DRY( 24,  5)   
    DRY( 24,  6)   DRY( 24,  7)   DRY( 24,  8)   DRY( 24,  9)   DRY( 24, 10)   
    DRY( 24, 11)   DRY( 24, 12)   DRY( 24, 13)   DRY( 24, 14)   DRY( 24, 15)   
    DRY( 24, 16)   DRY( 24, 17)   DRY( 24, 18)   DRY( 24, 19)   DRY( 24, 20)   
    DRY( 24, 21)   DRY( 24, 22)   DRY( 24, 23)   DRY( 24, 24)   DRY( 24, 25)   
    DRY( 24, 26)   DRY( 24, 27)   DRY( 24, 28)   DRY( 24, 29)   DRY( 24, 30)   
    DRY( 24, 31)   DRY( 24, 32)   DRY( 24, 33)   DRY( 24, 34)   DRY( 24, 35)   
    DRY( 24, 36)   DRY( 24, 37)   DRY( 24, 38)   DRY( 24, 39)   DRY( 24, 40)   
    DRY( 25,  1)   DRY( 25,  2)   DRY( 25,  3)   DRY( 25,  4)   DRY( 25,  5)   
    DRY( 25,  6)   DRY( 25,  7)   DRY( 25,  8)   DRY( 25,  9)   DRY( 25, 10)   
    DRY( 25, 11)   DRY( 25, 12)   DRY( 25, 13)   DRY( 25, 14)   DRY( 25, 15)   
    DRY( 25, 16)   DRY( 25, 17)   DRY( 25, 18)   DRY( 25, 19)   DRY( 25, 20)   
    DRY( 25, 21)   DRY( 25, 22)   DRY( 25, 23)   DRY( 25, 24)   DRY( 25, 25)   
    DRY( 25, 26)   DRY( 25, 27)   DRY( 25, 28)   DRY( 25, 29)   DRY( 25, 30)   
    DRY( 25, 31)   DRY( 25, 32)   DRY( 25, 33)   DRY( 25, 34)   DRY( 25, 35)   
    DRY( 25, 36)   DRY( 25, 37)   DRY( 25, 38)   DRY( 25, 39)   DRY( 25, 40)   
    DRY( 26,  1)   DRY( 26,  2)   DRY( 26,  3)   DRY( 26,  4)   DRY( 26,  5)   
    DRY( 26,  6)   DRY( 26,  7)   DRY( 26,  8)   DRY( 26,  9)   DRY( 26, 10)   
    DRY( 26, 11)   DRY( 26, 12)   DRY( 26, 13)   DRY( 26, 14)   DRY( 26, 15)   
    DRY( 26, 16)   DRY( 26, 17)   DRY( 26, 18)   DRY( 26, 19)   DRY( 26, 20)   
    DRY( 26, 21)   DRY( 26, 22)   DRY( 26, 23)   DRY( 26, 24)   DRY( 26, 25)   
    DRY( 26, 26)   DRY( 26, 27)   DRY( 26, 28)   DRY( 26, 29)   DRY( 26, 30)   
    DRY( 26, 31)   DRY( 26, 32)   DRY( 26, 33)   DRY( 26, 34)   DRY( 26, 35)   
    DRY( 26, 36)   DRY( 26, 37)   DRY( 26, 38)   DRY( 26, 39)   DRY( 26, 40)   
    DRY( 27,  1)   DRY( 27,  2)   DRY( 27,  3)   DRY( 27,  4)   DRY( 27,  5)   
    DRY( 27,  6)   DRY( 27,  7)   DRY( 27,  8)   DRY( 27,  9)   DRY( 27, 10)   
    DRY( 27, 11)   DRY( 27, 12)   DRY( 27, 13)   DRY( 27, 14)   DRY( 27, 15)   
    DRY( 27, 16)   DRY( 27, 17)   DRY( 27, 18)   DRY( 27, 19)   DRY( 27, 20)   
    DRY( 27, 21)   DRY( 27, 22)   DRY( 27, 23)   DRY( 27, 24)   DRY( 27, 25)   
    DRY( 27, 26)   DRY( 27, 27)   DRY( 27, 28)   DRY( 27, 29)   DRY( 27, 30)   
    DRY( 27, 31)   DRY( 27, 32)   DRY( 27, 33)   DRY( 27, 34)   DRY( 27, 35)   
    DRY( 27, 36)   DRY( 27, 37)   DRY( 27, 38)   DRY( 27, 39)   DRY( 27, 40)   
    DRY( 28,  1)   DRY( 28,  2)   DRY( 28,  3)   DRY( 28,  4)   DRY( 28,  5)   
    DRY( 28,  6)   DRY( 28,  7)   DRY( 28,  8)   DRY( 28,  9)   DRY( 28, 10)   
    DRY( 28, 11)   DRY( 28, 12)   DRY( 28, 13)   DRY( 28, 14)   DRY( 28, 15)   
    DRY( 28, 16)   DRY( 28, 17)   DRY( 28, 18)   DRY( 28, 19)   DRY( 28, 20)   
    DRY( 28, 21)   DRY( 28, 22)   DRY( 28, 23)   DRY( 28, 24)   DRY( 28, 25)   
    DRY( 28, 26)   DRY( 28, 27)   DRY( 28, 28)   DRY( 28, 29)   DRY( 28, 30)   
    DRY( 28, 31)   DRY( 28, 32)   DRY( 28, 33)   DRY( 28, 34)   DRY( 28, 35)   
    DRY( 28, 36)   DRY( 28, 37)   DRY( 28, 38)   DRY( 28, 39)   DRY( 28, 40)   
    DRY( 29,  1)   DRY( 29,  2)   DRY( 29,  3)   DRY( 29,  4)   DRY( 29,  5)   
    DRY( 29,  6)   DRY( 29,  7)   DRY( 29,  8)   DRY( 29,  9)   DRY( 29, 10)   
    DRY( 29, 11)   DRY( 29, 12)   DRY( 29, 13)   DRY( 29, 14)   DRY( 29, 15)   
    DRY( 29, 16)   DRY( 29, 17)   DRY( 29, 18)   DRY( 29, 19)   DRY( 29, 20)   
    DRY( 29, 21)   DRY( 29, 22)   DRY( 29, 23)   DRY( 29, 24)   DRY( 29, 25)   
    DRY( 29, 26)   DRY( 29, 27)   DRY( 29, 28)   DRY( 29, 29)   DRY( 29, 30)   
    DRY( 29, 31)   DRY( 29, 32)   DRY( 29, 33)   DRY( 29, 34)   DRY( 29, 35)   
    DRY( 29, 36)   DRY( 29, 37)   DRY( 29, 38)   DRY( 29, 39)   DRY( 29, 40)   
    DRY( 30,  1)   DRY( 30,  2)   DRY( 30,  3)   DRY( 30,  4)   DRY( 30,  5)   
    DRY( 30,  6)   DRY( 30,  7)   DRY( 30,  8)   DRY( 30,  9)   DRY( 30, 10)   
    DRY( 30, 11)   DRY( 30, 12)   DRY( 30, 13)   DRY( 30, 14)   DRY( 30, 15)   
    DRY( 30, 16)   DRY( 30, 17)   DRY( 30, 18)   DRY( 30, 19)   DRY( 30, 20)   
    DRY( 30, 21)   DRY( 30, 22)   DRY( 30, 23)   DRY( 30, 24)   DRY( 30, 25)   
    DRY( 30, 26)   DRY( 30, 27)   DRY( 30, 28)   DRY( 30, 29)   DRY( 30, 30)   
    DRY( 30, 31)   DRY( 30, 32)   DRY( 30, 33)   DRY( 30, 34)   DRY( 30, 35)   
    DRY( 30, 36)   DRY( 30, 37)   DRY( 30, 38)   DRY( 30, 39)   DRY( 30, 40)   
    DRY( 31,  1)   DRY( 31,  2)   DRY( 31,  3)   DRY( 31,  4)   DRY( 31,  5)   
    DRY( 31,  6)   DRY( 31,  7)   DRY( 31,  8)   DRY( 31,  9)   DRY( 31, 10)   
    DRY( 31, 11)   DRY( 31, 12)   DRY( 31, 13)   DRY( 31, 14)   DRY( 31, 15)   
    DRY( 31, 16)   DRY( 31, 17)   DRY( 31, 18)   DRY( 31, 19)   DRY( 31, 20)   
    DRY( 31, 21)   DRY( 31, 22)   DRY( 31, 23)   DRY( 31, 24)   DRY( 31, 25)   
    DRY( 31, 26)   DRY( 31, 27)   DRY( 31, 28)   DRY( 31, 29)   DRY( 31, 30)   
    DRY( 31, 31)   DRY( 31, 32)   DRY( 31, 33)   DRY( 31, 34)   DRY( 31, 35)   
    DRY( 31, 36)   DRY( 31, 37)   DRY( 31, 38)   DRY( 31, 39)   DRY( 31, 40)   
    DRY( 32,  1)   DRY( 32,  2)   DRY( 32,  3)   DRY( 32,  4)   DRY( 32,  5)   
    DRY( 32,  6)   DRY( 32,  7)   DRY( 32,  8)   DRY( 32,  9)   DRY( 32, 10)   
    DRY( 32, 11)   DRY( 32, 12)   DRY( 32, 13)   DRY( 32, 14)   DRY( 32, 15)   
    DRY( 32, 16)   DRY( 32, 17)   DRY( 32, 18)   DRY( 32, 19)   DRY( 32, 20)   
    DRY( 32, 21)   DRY( 32, 22)   DRY( 32, 23)   DRY( 32, 24)   DRY( 32, 25)   
    DRY( 32, 26)   DRY( 32, 27)   DRY( 32, 28)   DRY( 32, 29)   DRY( 32, 30)   
    DRY( 32, 31)   DRY( 32, 32)   DRY( 32, 33)   DRY( 32, 34)   DRY( 32, 35)   
    DRY( 32, 36)   DRY( 32, 37)   DRY( 32, 38)   DRY( 32, 39)   DRY( 32, 40)   
    DRY( 33,  1)   DRY( 33,  2)   DRY( 33,  3)   DRY( 33,  4)   DRY( 33,  5)   
    DRY( 33,  6)   DRY( 33,  7)   DRY( 33,  8)   DRY( 33,  9)   DRY( 33, 10)   
    DRY( 33, 11)   DRY( 33, 12)   DRY( 33, 13)   DRY( 33, 14)   DRY( 33, 15)   
    DRY( 33, 16)   DRY( 33, 17)   DRY( 33, 18)   DRY( 33, 19)   DRY( 33, 20)   
    DRY( 33, 21)   DRY( 33, 22)   DRY( 33, 23)   DRY( 33, 24)   DRY( 33, 25)   
    DRY( 33, 26)   DRY( 33, 27)   DRY( 33, 28)   DRY( 33, 29)   DRY( 33, 30)   
    DRY( 33, 31)   DRY( 33, 32)   DRY( 33, 33)   DRY( 33, 34)   DRY( 33, 35)   
    DRY( 33, 36)   DRY( 33, 37)   DRY( 33, 38)   DRY( 33, 39)   DRY( 33, 40)   
    DRY( 34,  1)   DRY( 34,  2)   DRY( 34,  3)   DRY( 34,  4)   DRY( 34,  5)   
    DRY( 34,  6)   DRY( 34,  7)   DRY( 34,  8)   DRY( 34,  9)   DRY( 34, 10)   
    DRY( 34, 11)   DRY( 34, 12)   DRY( 34, 13)   DRY( 34, 14)   DRY( 34, 15)   
    DRY( 34, 16)   DRY( 34, 17)   DRY( 34, 18)   DRY( 34, 19)   DRY( 34, 20)   
    DRY( 34, 21)   DRY( 34, 22)   DRY( 34, 23)   DRY( 34, 24)   DRY( 34, 25)   
    DRY( 34, 26)   DRY( 34, 27)   DRY( 34, 28)   DRY( 34, 29)   DRY( 34, 30)   
    DRY( 34, 31)   DRY( 34, 32)   DRY( 34, 33)   DRY( 34, 34)   DRY( 34, 35)   
    DRY( 34, 36)   DRY( 34, 37)   DRY( 34, 38)   DRY( 34, 39)   DRY( 34, 40)   
    DRY( 35,  1)   DRY( 35,  2)   DRY( 35,  3)   DRY( 35,  4)   DRY( 35,  5)   
    DRY( 35,  6)   DRY( 35,  7)   DRY( 35,  8)   DRY( 35,  9)   DRY( 35, 10)   
    DRY( 35, 11)   DRY( 35, 12)   DRY( 35, 13)   DRY( 35, 14)   DRY( 35, 15)   
    DRY( 35, 16)   DRY( 35, 17)   DRY( 35, 18)   DRY( 35, 19)   DRY( 35, 20)   
    DRY( 35, 21)   DRY( 35, 22)   DRY( 35, 23)   DRY( 35, 24)   DRY( 35, 25)   
    DRY( 35, 26)   DRY( 35, 27)   DRY( 35, 28)   DRY( 35, 29)   DRY( 35, 30)   
    DRY( 35, 31)   DRY( 35, 32)   DRY( 35, 33)   DRY( 35, 34)   DRY( 35, 35)   
    DRY( 35, 36)   DRY( 35, 37)   DRY( 35, 38)   DRY( 35, 39)   DRY( 35, 40)   
    DRY( 36,  1)   DRY( 36,  2)   DRY( 36,  3)   DRY( 36,  4)   DRY( 36,  5)   
    DRY( 36,  6)   DRY( 36,  7)   DRY( 36,  8)   DRY( 36,  9)   DRY( 36, 10)   
    DRY( 36, 11)   DRY( 36, 12)   DRY( 36, 13)   DRY( 36, 14)   DRY( 36, 15)   
    DRY( 36, 16)   DRY( 36, 17)   DRY( 36, 18)   DRY( 36, 19)   DRY( 36, 20)   
    DRY( 36, 21)   DRY( 36, 22)   DRY( 36, 23)   DRY( 36, 24)   DRY( 36, 25)   
    DRY( 36, 26)   DRY( 36, 27)   DRY( 36, 28)   DRY( 36, 29)   DRY( 36, 30)   
    DRY( 36, 31)   DRY( 36, 32)   DRY( 36, 33)   DRY( 36, 34)   DRY( 36, 35)   
    DRY( 36, 36)   DRY( 36, 37)   DRY( 36, 38)   DRY( 36, 39)   DRY( 36, 40)   
    DRY( 37,  1)   DRY( 37,  2)   DRY( 37,  3)   DRY( 37,  4)   DRY( 37,  5)   
    DRY( 37,  6)   DRY( 37,  7)   DRY( 37,  8)   DRY( 37,  9)   DRY( 37, 10)   
    DRY( 37, 11)   DRY( 37, 12)   DRY( 37, 13)   DRY( 37, 14)   DRY( 37, 15)   
    DRY( 37, 16)   DRY( 37, 17)   DRY( 37, 18)   DRY( 37, 19)   DRY( 37, 20)   
    DRY( 37, 21)   DRY( 37, 22)   DRY( 37, 23)   DRY( 37, 24)   DRY( 37, 25)   
    DRY( 37, 26)   DRY( 37, 27)   DRY( 37, 28)   DRY( 37, 29)   DRY( 37, 30)   
    DRY( 37, 31)   DRY( 37, 32)   DRY( 37, 33)   DRY( 37, 34)   DRY( 37, 35)   
    DRY( 37, 36)   DRY( 37, 37)   DRY( 37, 38)   DRY( 37, 39)   DRY( 37, 40)   
    DRY( 38,  1)   DRY( 38,  2)   DRY( 38,  3)   DRY( 38,  4)   DRY( 38,  5)   
    DRY( 38,  6)   DRY( 38,  7)   DRY( 38,  8)   DRY( 38,  9)   DRY( 38, 10)   
    DRY( 38, 11)   DRY( 38, 12)   DRY( 38, 13)   DRY( 38, 14)   DRY( 38, 15)   
    DRY( 38, 16)   DRY( 38, 17)   DRY( 38, 18)   DRY( 38, 19)   DRY( 38, 20)   
    DRY( 38, 21)   DRY( 38, 22)   DRY( 38, 23)   DRY( 38, 24)   DRY( 38, 25)   
    DRY( 38, 26)   DRY( 38, 27)   DRY( 38, 28)   DRY( 38, 29)   DRY( 38, 30)   
    DRY( 38, 31)   DRY( 38, 32)   DRY( 38, 33)   DRY( 38, 34)   DRY( 38, 35)   
    DRY( 38, 36)   DRY( 38, 37)   DRY( 38, 38)   DRY( 38, 39)   DRY( 38, 40)   
    DRY( 39,  1)   DRY( 39,  2)   DRY( 39,  3)   DRY( 39,  4)   DRY( 39,  5)   
    DRY( 39,  6)   DRY( 39,  7)   DRY( 39,  8)   DRY( 39,  9)   DRY( 39, 10)   
    DRY( 39, 11)   DRY( 39, 12)   DRY( 39, 13)   DRY( 39, 14)   DRY( 39, 15)   
    DRY( 39, 16)   DRY( 39, 17)   DRY( 39, 18)   DRY( 39, 19)   DRY( 39, 20)   
    DRY( 39, 21)   DRY( 39, 22)   DRY( 39, 23)   DRY( 39, 24)   DRY( 39, 25)   
    DRY( 39, 26)   DRY( 39, 27)   DRY( 39, 28)   DRY( 39, 29)   DRY( 39, 30)   
    DRY( 39, 31)   DRY( 39, 32)   DRY( 39, 33)   DRY( 39, 34)   DRY( 39, 35)   
    DRY( 39, 36)   DRY( 39, 37)   DRY( 39, 38)   DRY( 39, 39)   DRY( 39, 40)   
    DRY( 40,  1)   DRY( 40,  2)   DRY( 40,  3)   DRY( 40,  4)   DRY( 40,  5)   
    DRY( 40,  6)   DRY( 40,  7)   DRY( 40,  8)   DRY( 40,  9)   DRY( 40, 10)   
    DRY( 40, 11)   DRY( 40, 12)   DRY( 40, 13)   DRY( 40, 14)   DRY( 40, 15)   
    DRY( 40, 16)   DRY( 40, 17)   DRY( 40, 18)   DRY( 40, 19)   DRY( 40, 20)   
    DRY( 40, 21)   DRY( 40, 22)   DRY( 40, 23)   DRY( 40, 24)   DRY( 40, 25)   
    DRY( 40, 26)   DRY( 40, 27)   DRY( 40, 28)   DRY( 40, 29)   DRY( 40, 30)   
    DRY( 40, 31)   DRY( 40, 32)   DRY( 40, 33)   DRY( 40, 34)   DRY( 40, 35)   
    DRY( 40, 36)   DRY( 40, 37)   DRY( 40, 38)   DRY( 40, 39)   DRY( 40, 40)   

 CELL CONVERSIONS FOR ITER.=  1  LAYER=  2  STEP=  1  PERIOD=   1   (ROW,COL)
    DRY(  1,  1)   DRY(  1,  2)   DRY(  1,  3)   DRY(  1,  4)   DRY(  1,  5)   
    DRY(  1,  6)   DRY(  1,  7)   DRY(  1,  8)   DRY(  1,  9)   DRY(  1, 10)   
    DRY(  1, 11)   DRY(  1, 12)   DRY(  1, 13)   DRY(  1, 14)   DRY(  1, 15)   
    DRY(  1, 16)   DRY(  1, 17)   DRY(  1, 18)   DRY(  1, 19)   DRY(  1, 20)   
    DRY(  1, 21)   DRY(  1, 22)   DRY(  1, 23)   DRY(  1, 24)   DRY(  1, 25)   
    DRY(  1, 26)   DRY(  1, 27)   DRY(  1, 28)   DRY(  1, 29)   DRY(  1, 30)   
    DRY(  1, 31)   DRY(  1, 32)   DRY(  1, 33)   DRY(  1, 34)   DRY(  1, 35)   
    DRY(  1, 36)   DRY(  1, 37)   DRY(  1, 38)   DRY(  1, 39)   DRY(  1, 40)   
    DRY(  2,  1)   DRY(  2,  2)   DRY(  2,  3)   DRY(  2,  4)   DRY(  2,  5)   
    DRY(  2,  6)   DRY(  2,  7)   DRY(  2,  8)   DRY(  2,  9)   DRY(  2, 10)   
    DRY(  2, 11)   DRY(  2, 12)   DRY(  2, 13)   DRY(  2, 14)   DRY(  2, 15)   
    DRY(  2, 16)   DRY(  2, 17)   DRY(  2, 18)   DRY(  2, 19)   DRY(  2, 20)   
    DRY(  2, 21)   DRY(  2, 22)   DRY(  2, 23)   DRY(  2, 24)   DRY(  2, 25)   
    DRY(  2, 26)   DRY(  2, 27)   DRY(  2, 28)   DRY(  2, 29)   DRY(  2, 30)   
    DRY(  2, 31)   DRY(  2, 32)   DRY(  2, 33)   DRY(  2, 34)   DRY(  2, 35)   
    DRY(  2, 36)   DRY(  2, 37)   DRY(  2, 38)   DRY(  2, 39)   DRY(  2, 40)   
    DRY(  3,  1)   DRY(  3,  2)   DRY(  3,  3)   DRY(  3,  4)   DRY(  3,  5)   
    DRY(  3,  6)   DRY(  3,  7)   DRY(  3,  8)   DRY(  3,  9)   DRY(  3, 10)   
    DRY(  3, 11)   DRY(  3, 12)   DRY(  3, 13)   DRY(  3, 14)   DRY(  3, 15)   
    DRY(  3, 16)   DRY(  3, 17)   DRY(  3, 18)   DRY(  3, 19)   DRY(  3, 20)   
    DRY(  3, 21)   DRY(  3, 22)   DRY(  3, 23)   DRY(  3, 24)   DRY(  3, 25)   
    DRY(  3, 26)   DRY(  3, 27)   DRY(  3, 28)   DRY(  3, 29)   DRY(  3, 30)   
    DRY(  3, 31)   DRY(  3, 32)   DRY(  3, 33)   DRY(  3, 34)   DRY(  3, 35)   
    DRY(  3, 36)   DRY(  3, 37)   DRY(  3, 38)   DRY(  3, 39)   DRY(  3, 40)   
    DRY(  4,  1)   DRY(  4,  2)   DRY(  4,  3)   DRY(  4,  4)   DRY(  4,  5)   
    DRY(  4,  6)   DRY(  4,  7)   DRY(  4,  8)   DRY(  4,  9)   DRY(  4, 10)   
    DRY(  4, 11)   DRY(  4, 12)   DRY(  4, 13)   DRY(  4, 14)   DRY(  4, 15)   
    DRY(  4, 16)   DRY(  4, 17)   DRY(  4, 18)   DRY(  4, 19)   DRY(  4, 20)   
    DRY(  4, 21)   DRY(  4, 22)   DRY(  4, 23)   DRY(  4, 24)   DRY(  4, 25)   
    DRY(  4, 26)   DRY(  4, 27)   DRY(  4, 28)   DRY(  4, 29)   DRY(  4, 30)   
    DRY(  4, 31)   DRY(  4, 32)   DRY(  4, 33)   DRY(  4, 34)   DRY(  4, 35)   
    DRY(  4, 36)   DRY(  4, 37)   DRY(  4, 38)   DRY(  4, 39)   DRY(  4, 40)   
    DRY(  5,  1)   DRY(  5,  2)   DRY(  5,  3)   DRY(  5,  4)   DRY(  5,  5)   
    DRY(  5,  6)   DRY(  5,  7)   DRY(  5,  8)   DRY(  5,  9)   DRY(  5, 10)   
    DRY(  5, 11)   DRY(  5, 12)   DRY(  5, 13)   DRY(  5, 14)   DRY(  5, 15)   
    DRY(  5, 16)   DRY(  5, 17)   DRY(  5, 18)   DRY(  5, 19)   DRY(  5, 20)   
    DRY(  5, 21)   DRY(  5, 22)   DRY(  5, 23)   DRY(  5, 24)   DRY(  5, 25)   
    DRY(  5, 26)   DRY(  5, 27)   DRY(  5, 28)   DRY(  5, 29)   DRY(  5, 30)   
    DRY(  5, 31)   DRY(  5, 32)   DRY(  5, 33)   DRY(  5, 34)   DRY(  5, 35)   
    DRY(  5, 36)   DRY(  5, 37)   DRY(  5, 38)   DRY(  5, 39)   DRY(  5, 40)   
    DRY(  6,  1)   DRY(  6,  2)   DRY(  6,  3)   DRY(  6,  4)   DRY(  6,  5)   
    DRY(  6,  6)   DRY(  6,  7)   DRY(  6,  8)   DRY(  6,  9)   DRY(  6, 10)   
    DRY(  6, 11)   DRY(  6, 12)   DRY(  6, 13)   DRY(  6, 14)   DRY(  6, 15)   
    DRY(  6, 16)   DRY(  6, 17)   DRY(  6, 18)   DRY(  6, 19)   DRY(  6, 20)   
    DRY(  6, 21)   DRY(  6, 22)   DRY(  6, 23)   DRY(  6, 24)   DRY(  6, 25)   
    DRY(  6, 26)   DRY(  6, 27)   DRY(  6, 28)   DRY(  6, 29)   DRY(  6, 30)   
    DRY(  6, 31)   DRY(  6, 32)   DRY(  6, 33)   DRY(  6, 34)   DRY(  6, 35)   
    DRY(  6, 36)   DRY(  6, 37)   DRY(  6, 38)   DRY(  6, 39)   DRY(  6, 40)   
    DRY(  7,  1)   DRY(  7,  2)   DRY(  7,  3)   DRY(  7,  4)   DRY(  7,  5)   
    DRY(  7,  6)   DRY(  7,  7)   DRY(  7,  8)   DRY(  7,  9)   DRY(  7, 10)   
    DRY(  7, 11)   DRY(  7, 12)   DRY(  7, 13)   DRY(  7, 14)   DRY(  7, 15)   
    DRY(  7, 16)   DRY(  7, 17)   DRY(  7, 18)   DRY(  7, 19)   DRY(  7, 20)   
    DRY(  7, 21)   DRY(  7, 22)   DRY(  7, 23)   DRY(  7, 24)   DRY(  7, 25)   
    DRY(  7, 26)   DRY(  7, 27)   DRY(  7, 28)   DRY(  7, 29)   DRY(  7, 30)   
    DRY(  7, 31)   DRY(  7, 32)   DRY(  7, 33)   DRY(  7, 34)   DRY(  7, 35)   
    DRY(  7, 36)   DRY(  7, 37)   DRY(  7, 38)   DRY(  7, 39)   DRY(  7, 40)   
    DRY(  8,  1)   DRY(  8,  2)   DRY(  8,  3)   DRY(  8,  4)   DRY(  8,  5)   
    DRY(  8,  6)   DRY(  8,  7)   DRY(  8,  8)   DRY(  8,  9)   DRY(  8, 10)   
    DRY(  8, 11)   DRY(  8, 12)   DRY(  8, 13)   DRY(  8, 14)   DRY(  8, 15)   
    DRY(  8, 16)   DRY(  8, 17)   DRY(  8, 18)   DRY(  8, 19)   DRY(  8, 20)   
    DRY(  8, 21)   DRY(  8, 22)   DRY(  8, 23)   DRY(  8, 24)   DRY(  8, 25)   
    DRY(  8, 26)   DRY(  8, 27)   DRY(  8, 28)   DRY(  8, 29)   DRY(  8, 30)   
    DRY(  8, 31)   DRY(  8, 32)   DRY(  8, 33)   DRY(  8, 34)   DRY(  8, 35)   
    DRY(  8, 36)   DRY(  8, 37)   DRY(  8, 38)   DRY(  8, 39)   DRY(  8, 40)   
    DRY(  9,  1)   DRY(  9,  2)   DRY(  9,  3)   DRY(  9,  4)   DRY(  9,  5)   
    DRY(  9,  6)   DRY(  9,  7)   DRY(  9,  8)   DRY(  9,  9)   DRY(  9, 10)   
    DRY(  9, 11)   DRY(  9, 12)   DRY(  9, 13)   DRY(  9, 14)   DRY(  9, 15)   
    DRY(  9, 16)   DRY(  9, 17)   DRY(  9, 18)   DRY(  9, 19)   DRY(  9, 20)   
    DRY(  9, 21)   DRY(  9, 22)   DRY(  9, 23)   DRY(  9, 24)   DRY(  9, 25)   
    DRY(  9, 26)   DRY(  9, 27)   DRY(  9, 28)   DRY(  9, 29)   DRY(  9, 30)   
    DRY(  9, 31)   DRY(  9, 32)   DRY(  9, 33)   DRY(  9, 34)   DRY(  9, 35)   
    DRY(  9, 36)   DRY(  9, 37)   DRY(  9, 38)   DRY(  9, 39)   DRY(  9, 40)   
    DRY( 10,  1)   DRY( 10,  2)   DRY( 10,  3)   DRY( 10,  4)   DRY( 10,  5)   
    DRY( 10,  6)   DRY( 10,  7)   DRY( 10,  8)   DRY( 10,  9)   DRY( 10, 10)   
    DRY( 10, 11)   DRY( 10, 12)   DRY( 10, 13)   DRY( 10, 14)   DRY( 10, 15)   
    DRY( 10, 16)   DRY( 10, 17)   DRY( 10, 18)   DRY( 10, 19)   DRY( 10, 20)   
    DRY( 10, 21)   DRY( 10, 22)   DRY( 10, 23)   DRY( 10, 24)   DRY( 10, 25)   
    DRY( 10, 26)   DRY( 10, 27)   DRY( 10, 28)   DRY( 10, 29)   DRY( 10, 30)   
    DRY( 10, 31)   DRY( 10, 32)   DRY( 10, 33)   DRY( 10, 34)   DRY( 10, 35)   
    DRY( 10, 36)   DRY( 10, 37)   DRY( 10, 38)   DRY( 10, 39)   DRY( 10, 40)   
    DRY( 11,  1)   DRY( 11,  2)   DRY( 11,  3)   DRY( 11,  4)   DRY( 11,  5)   
    DRY( 11,  6)   DRY( 11,  7)   DRY( 11,  8)   DRY( 11,  9)   DRY( 11, 10)   
    DRY( 11, 11)   DRY( 11, 12)   DRY( 11, 13)   DRY( 11, 14)   DRY( 11, 15)   
    DRY( 11, 16)   DRY( 11, 17)   DRY( 11, 18)   DRY( 11, 19)   DRY( 11, 20)   
    DRY( 11, 21)   DRY( 11, 22)   DRY( 11, 23)   DRY( 11, 24)   DRY( 11, 25)   
    DRY( 11, 26)   DRY( 11, 27)   DRY( 11, 28)   DRY( 11, 29)   DRY( 11, 30)   
    DRY( 11, 31)   DRY( 11, 32)   DRY( 11, 33)   DRY( 11, 34)   DRY( 11, 35)   
    DRY( 11, 36)   DRY( 11, 37)   DRY( 11, 38)   DRY( 11, 39)   DRY( 11, 40)   
    DRY( 12,  1)   DRY( 12,  2)   DRY( 12,  3)   DRY( 12,  4)   DRY( 12,  5)   
    DRY( 12,  6)   DRY( 12,  7)   DRY( 12,  8)   DRY( 12,  9)   DRY( 12, 10)   
    DRY( 12, 11)   DRY( 12, 12)   DRY( 12, 13)   DRY( 12, 14)   DRY( 12, 15)   
    DRY( 12, 16)   DRY( 12, 17)   DRY( 12, 18)   DRY( 12, 19)   DRY( 12, 20)   
    DRY( 12, 21)   DRY( 12, 22)   DRY( 12, 23)   DRY( 12, 24)   DRY( 12, 25)   
    DRY( 12, 26)   DRY( 12, 27)   DRY( 12, 28)   DRY( 12, 29)   DRY( 12, 30)   
    DRY( 12, 31)   DRY( 12, 32)   DRY( 12, 33)   DRY( 12, 34)   DRY( 12, 35)   
    DRY( 12, 36)   DRY( 12, 37)   DRY( 12, 38)   DRY( 12, 39)   DRY( 12, 40)   
    DRY( 13,  1)   DRY( 13,  2)   DRY( 13,  3)   DRY( 13,  4)   DRY( 13,  5)   
    DRY( 13,  6)   DRY( 13,  7)   DRY( 13,  8)   DRY( 13,  9)   DRY( 13, 10)   
    DRY( 13, 11)   DRY( 13, 12)   DRY( 13, 13)   DRY( 13, 14)   DRY( 13, 15)   
    DRY( 13, 16)   DRY( 13, 17)   DRY( 13, 18)   DRY( 13, 19)   DRY( 13, 20)   
    DRY( 13, 21)   DRY( 13, 22)   DRY( 13, 23)   DRY( 13, 24)   DRY( 13, 25)   
    DRY( 13, 26)   DRY( 13, 27)   DRY( 13, 28)   DRY( 13, 29)   DRY( 13, 30)   
    DRY( 13, 31)   DRY( 13, 32)   DRY( 13, 33)   DRY( 13, 34)   DRY( 13, 35)   
    DRY( 13, 36)   DRY( 13, 37)   DRY( 13, 38)   DRY( 13, 39)   DRY( 13, 40)   
    DRY( 14,  1)   DRY( 14,  2)   DRY( 14,  3)   DRY( 14,  4)   DRY( 14,  5)   
    DRY( 14,  6)   DRY( 14,  7)   DRY( 14,  8)   DRY( 14,  9)   DRY( 14, 10)   
    DRY( 14, 11)   DRY( 14, 12)   DRY( 14, 13)   DRY( 14, 14)   DRY( 14, 15)   
    DRY( 14, 16)   DRY( 14, 17)   DRY( 14, 18)   DRY( 14, 19)   DRY( 14, 20)   
    DRY( 14, 21)   DRY( 14, 22)   DRY( 14, 23)   DRY( 14, 24)   DRY( 14, 25)   
    DRY( 14, 26)   DRY( 14, 27)   DRY( 14, 28)   DRY( 14, 29)   DRY( 14, 30)   
    DRY( 14, 31)   DRY( 14, 32)   DRY( 14, 33)   DRY( 14, 34)   DRY( 14, 35)   
    DRY( 14, 36)   DRY( 14, 37)   DRY( 14, 38)   DRY( 14, 39)   DRY( 14, 40)   
    DRY( 15,  1)   DRY( 15,  2)   DRY( 15,  3)   DRY( 15,  4)   DRY( 15,  5)   
    DRY( 15,  6)   DRY( 15,  7)   DRY( 15,  8)   DRY( 15,  9)   DRY( 15, 10)   
    DRY( 15, 11)   DRY( 15, 12)   DRY( 15, 13)   DRY( 15, 14)   DRY( 15, 15)   
    DRY( 15, 16)   DRY( 15, 17)   DRY( 15, 18)   DRY( 15, 19)   DRY( 15, 20)   
    DRY( 15, 21)   DRY( 15, 22)   DRY( 15, 23)   DRY( 15, 24)   DRY( 15, 25)   
    DRY( 15, 26)   DRY( 15, 27)   DRY( 15, 28)   DRY( 15, 29)   DRY( 15, 30)   
    DRY( 15, 31)   DRY( 15, 32)   DRY( 15, 33)   DRY( 15, 34)   DRY( 15, 35)   
    DRY( 15, 36)   DRY( 15, 37)   DRY( 15, 38)   DRY( 15, 39)   DRY( 15, 40)   
    DRY( 16,  1)   DRY( 16,  2)   DRY( 16,  3)   DRY( 16,  4)   DRY( 16,  5)   
    DRY( 16,  6)   DRY( 16,  7)   DRY( 16,  8)   DRY( 16,  9)   DRY( 16, 10)   
    DRY( 16, 11)   DRY( 16, 12)   DRY( 16, 13)   DRY( 16, 14)   DRY( 16, 15)   
    DRY( 16, 16)   DRY( 16, 17)   DRY( 16, 18)   DRY( 16, 19)   DRY( 16, 20)   
    DRY( 16, 21)   DRY( 16, 22)   DRY( 16, 23)   DRY( 16, 24)   DRY( 16, 25)   
    DRY( 16, 26)   DRY( 16, 27)   DRY( 16, 28)   DRY( 16, 29)   DRY( 16, 30)   
    DRY( 16, 31)   DRY( 16, 32)   DRY( 16, 33)   DRY( 16, 34)   DRY( 16, 35)   
    DRY( 16, 36)   DRY( 16, 37)   DRY( 16, 38)   DRY( 16, 39)   DRY( 16, 40)   
    DRY( 17,  1)   DRY( 17,  2)   DRY( 17,  3)   DRY( 17,  4)   DRY( 17,  5)   
    DRY( 17,  6)   DRY( 17,  7)   DRY( 17,  8)   DRY( 17,  9)   DRY( 17, 10)   
    DRY( 17, 11)   DRY( 17, 12)   DRY( 17, 13)   DRY( 17, 14)   DRY( 17, 15)   
    DRY( 17, 16)   DRY( 17, 17)   DRY( 17, 18)   DRY( 17, 19)   DRY( 17, 20)   
    DRY( 17, 21)   DRY( 17, 22)   DRY( 17, 23)   DRY( 17, 24)   DRY( 17, 25)   
    DRY( 17, 26)   DRY( 17, 27)   DRY( 17, 28)   DRY( 17, 29)   DRY( 17, 30)   
    DRY( 17, 31)   DRY( 17, 32)   DRY( 17, 33)   DRY( 17, 34)   DRY( 17, 35)   
    DRY( 17, 36)   DRY( 17, 37)   DRY( 17, 38)   DRY( 17, 39)   DRY( 17, 40)   
    DRY( 18,  1)   DRY( 18,  2)   DRY( 18,  3)   DRY( 18,  4)   DRY( 18,  5)   
    DRY( 18,  6)   DRY( 18,  7)   DRY( 18,  8)   DRY( 18,  9)   DRY( 18, 10)   
    DRY( 18, 11)   DRY( 18, 12)   DRY( 18, 13)   DRY( 18, 14)   DRY( 18, 15)   
    DRY( 18, 16)   DRY( 18, 17)   DRY( 18, 18)   DRY( 18, 19)   DRY( 18, 20)   
    DRY( 18, 21)   DRY( 18, 22)   DRY( 18, 23)   DRY( 18, 24)   DRY( 18, 25)   
    DRY( 18, 26)   DRY( 18, 27)   DRY( 18, 28)   DRY( 18, 29)   DRY( 18, 30)   
    DRY( 18, 31)   DRY( 18, 32)   DRY( 18, 33)   DRY( 18, 34)   DRY( 18, 35)   
    DRY( 18, 36)   DRY( 18, 37)   DRY( 18, 38)   DRY( 18, 39)   DRY( 18, 40)   
    DRY( 19,  1)   DRY( 19,  2)   DRY( 19,  3)   DRY( 19,  4)   DRY( 19,  5)   
    DRY( 19,  6)   DRY( 19,  7)   DRY( 19,  8)   DRY( 19,  9)   DRY( 19, 10)   
    DRY( 19, 11)   DRY( 19, 12)   DRY( 19, 13)   DRY( 19, 14)   DRY( 19, 15)   
    DRY( 19, 16)   DRY( 19, 17)   DRY( 19, 18)   DRY( 19, 19)   DRY( 19, 20)   
    DRY( 19, 21)   DRY( 19, 22)   DRY( 19, 23)   DRY( 19, 24)   DRY( 19, 25)   
    DRY( 19, 26)   DRY( 19, 27)   DRY( 19, 28)   DRY( 19, 29)   DRY( 19, 30)   
    DRY( 19, 31)   DRY( 19, 32)   DRY( 19, 33)   DRY( 19, 34)   DRY( 19, 35)   
    DRY( 19, 36)   DRY( 19, 37)   DRY( 19, 38)   DRY( 19, 39)   DRY( 19, 40)   
    DRY( 20,  1)   DRY( 20,  2)   DRY( 20,  3)   DRY( 20,  4)   DRY( 20,  5)   
    DRY( 20,  6)   DRY( 20,  7)   DRY( 20,  8)   DRY( 20,  9)   DRY( 20, 10)   
    DRY( 20, 11)   DRY( 20, 12)   DRY( 20, 13)   DRY( 20, 14)   DRY( 20, 15)   
    DRY( 20, 16)   DRY( 20, 17)   DRY( 20, 18)   DRY( 20, 19)   DRY( 20, 20)   
    DRY( 20, 21)   DRY( 20, 22)   DRY( 20, 23)   DRY( 20, 24)   DRY( 20, 25)   
    DRY( 20, 26)   DRY( 20, 27)   DRY( 20, 28)   DRY( 20, 29)   DRY( 20, 30)   
    DRY( 20, 31)   DRY( 20, 32)   DRY( 20, 33)   DRY( 20, 34)   DRY( 20, 35)   
    DRY( 20, 36)   DRY( 20, 37)   DRY( 20, 38)   DRY( 20, 39)   DRY( 20, 40)   
    DRY( 21,  1)   DRY( 21,  2)   DRY( 21,  3)   DRY( 21,  4)   DRY( 21,  5)   
    DRY( 21,  6)   DRY( 21,  7)   DRY( 21,  8)   DRY( 21,  9)   DRY( 21, 10)   
    DRY( 21, 11)   DRY( 21, 12)   DRY( 21, 13)   DRY( 21, 14)   DRY( 21, 15)   
    DRY( 21, 16)   DRY( 21, 17)   DRY( 21, 18)   DRY( 21, 19)   DRY( 21, 20)   
    DRY( 21, 21)   DRY( 21, 22)   DRY( 21, 23)   DRY( 21, 24)   DRY( 21, 25)   
    DRY( 21, 26)   DRY( 21, 27)   DRY( 21, 28)   DRY( 21, 29)   DRY( 21, 30)   
    DRY( 21, 31)   DRY( 21, 32)   DRY( 21, 33)   DRY( 21, 34)   DRY( 21, 35)   
    DRY( 21, 36)   DRY( 21, 37)   DRY( 21, 38)   DRY( 21, 39)   DRY( 21, 40)   
    DRY( 22,  1)   DRY( 22,  2)   DRY( 22,  3)   DRY( 22,  4)   DRY( 22,  5)   
    DRY( 22,  6)   DRY( 22,  7)   DRY( 22,  8)   DRY( 22,  9)   DRY( 22, 10)   
    DRY( 22, 11)   DRY( 22, 12)   DRY( 22, 13)   DRY( 22, 14)   DRY( 22, 15)   
    DRY( 22, 16)   DRY( 22, 17)   DRY( 22, 18)   DRY( 22, 19)   DRY( 22, 20)   
    DRY( 22, 21)   DRY( 22, 22)   DRY( 22, 23)   DRY( 22, 24)   DRY( 22, 25)   
    DRY( 22, 26)   DRY( 22, 27)   DRY( 22, 28)   DRY( 22, 29)   DRY( 22, 30)   
    DRY( 22, 31)   DRY( 22, 32)   DRY( 22, 33)   DRY( 22, 34)   DRY( 22, 35)   
    DRY( 22, 36)   DRY( 22, 37)   DRY( 22, 38)   DRY( 22, 39)   DRY( 22, 40)   
    DRY( 23,  1)   DRY( 23,  2)   DRY( 23,  3)   DRY( 23,  4)   DRY( 23,  5)   
    DRY( 23,  6)   DRY( 23,  7)   DRY( 23,  8)   DRY( 23,  9)   DRY( 23, 10)   
    DRY( 23, 11)   DRY( 23, 12)   DRY( 23, 13)   DRY( 23, 14)   DRY( 23, 15)   
    DRY( 23, 16)   DRY( 23, 17)   DRY( 23, 18)   DRY( 23, 19)   DRY( 23, 20)   
    DRY( 23, 21)   DRY( 23, 22)   DRY( 23, 23)   DRY( 23, 24)   DRY( 23, 25)   
    DRY( 23, 26)   DRY( 23, 27)   DRY( 23, 28)   DRY( 23, 29)   DRY( 23, 30)   
    DRY( 23, 31)   DRY( 23, 32)   DRY( 23, 33)   DRY( 23, 34)   DRY( 23, 35)   
    DRY( 23, 36)   DRY( 23, 37)   DRY( 23, 38)   DRY( 23, 39)   DRY( 23, 40)   
    DRY( 24,  1)   DRY( 24,  2)   DRY( 24,  3)   DRY( 24,  4)   DRY( 24,  5)   
    DRY( 24,  6)   DRY( 24,  7)   DRY( 24,  8)   DRY( 24,  9)   DRY( 24, 10)   
    DRY( 24, 11)   DRY( 24, 12)   DRY( 24, 13)   DRY( 24, 14)   DRY( 24, 15)   
    DRY( 24, 16)   DRY( 24, 17)   DRY( 24, 18)   DRY( 24, 19)   DRY( 24, 20)   
    DRY( 24, 21)   DRY( 24, 22)   DRY( 24, 23)   DRY( 24, 24)   DRY( 24, 25)   
    DRY( 24, 26)   DRY( 24, 27)   DRY( 24, 28)   DRY( 24, 29)   DRY( 24, 30)   
    DRY( 24, 31)   DRY( 24, 32)   DRY( 24, 33)   DRY( 24, 34)   DRY( 24, 35)   
    DRY( 24, 36)   DRY( 24, 37)   DRY( 24, 38)   DRY( 24, 39)   DRY( 24, 40)   
    DRY( 25,  1)   DRY( 25,  2)   DRY( 25,  3)   DRY( 25,  4)   DRY( 25,  5)   
    DRY( 25,  6)   DRY( 25,  7)   DRY( 25,  8)   DRY( 25,  9)   DRY( 25, 10)   
    DRY( 25, 11)   DRY( 25, 12)   DRY( 25, 13)   DRY( 25, 14)   DRY( 25, 15)   
    DRY( 25, 16)   DRY( 25, 17)   DRY( 25, 18)   DRY( 25, 19)   DRY( 25, 20)   
    DRY( 25, 21)   DRY( 25, 22)   DRY( 25, 23)   DRY( 25, 24)   DRY( 25, 25)   
    DRY( 25, 26)   DRY( 25, 27)   DRY( 25, 28)   DRY( 25, 29)   DRY( 25, 30)   
    DRY( 25, 31)   DRY( 25, 32)   DRY( 25, 33)   DRY( 25, 34)   DRY( 25, 35)   
    DRY( 25, 36)   DRY( 25, 37)   DRY( 25, 38)   DRY( 25, 39)   DRY( 25, 40)   
    DRY( 26,  1)   DRY( 26,  2)   DRY( 26,  3)   DRY( 26,  4)   DRY( 26,  5)   
    DRY( 26,  6)   DRY( 26,  7)   DRY( 26,  8)   DRY( 26,  9)   DRY( 26, 10)   
    DRY( 26, 11)   DRY( 26, 12)   DRY( 26, 13)   DRY( 26, 14)   DRY( 26, 15)   
    DRY( 26, 16)   DRY( 26, 17)   DRY( 26, 18)   DRY( 26, 19)   DRY( 26, 20)   
    DRY( 26, 21)   DRY( 26, 22)   DRY( 26, 23)   DRY( 26, 24)   DRY( 26, 25)   
    DRY( 26, 26)   DRY( 26, 27)   DRY( 26, 28)   DRY( 26, 29)   DRY( 26, 30)   
    DRY( 26, 31)   DRY( 26, 32)   DRY( 26, 33)   DRY( 26, 34)   DRY( 26, 35)   
    DRY( 26, 36)   DRY( 26, 37)   DRY( 26, 38)   DRY( 26, 39)   DRY( 26, 40)   
    DRY( 27,  1)   DRY( 27,  2)   DRY( 27,  3)   DRY( 27,  4)   DRY( 27,  5)   
    DRY( 27,  6)   DRY( 27,  7)   DRY( 27,  8)   DRY( 27,  9)   DRY( 27, 10)   
    DRY( 27, 11)   DRY( 27, 12)   DRY( 27, 13)   DRY( 27, 14)   DRY( 27, 15)   
    DRY( 27, 16)   DRY( 27, 17)   DRY( 27, 18)   DRY( 27, 19)   DRY( 27, 20)   
    DRY( 27, 21)   DRY( 27, 22)   DRY( 27, 23)   DRY( 27, 24)   DRY( 27, 25)   
    DRY( 27, 26)   DRY( 27, 27)   DRY( 27, 28)   DRY( 27, 29)   DRY( 27, 30)   
    DRY( 27, 31)   DRY( 27, 32)   DRY( 27, 33)   DRY( 27, 34)   DRY( 27, 35)   
    DRY( 27, 36)   DRY( 27, 37)   DRY( 27, 38)   DRY( 27, 39)   DRY( 27, 40)   
    DRY( 28,  1)   DRY( 28,  2)   DRY( 28,  3)   DRY( 28,  4)   DRY( 28,  5)   
    DRY( 28,  6)   DRY( 28,  7)   DRY( 28,  8)   DRY( 28,  9)   DRY( 28, 10)   
    DRY( 28, 11)   DRY( 28, 12)   DRY( 28, 13)   DRY( 28, 14)   DRY( 28, 15)   
    DRY( 28, 16)   DRY( 28, 17)   DRY( 28, 18)   DRY( 28, 19)   DRY( 28, 20)   
    DRY( 28, 21)   DRY( 28, 22)   DRY( 28, 23)   DRY( 28, 24)   DRY( 28, 25)   
    DRY( 28, 26)   DRY( 28, 27)   DRY( 28, 28)   DRY( 28, 29)   DRY( 28, 30)   
    DRY( 28, 31)   DRY( 28, 32)   DRY( 28, 33)   DRY( 28, 34)   DRY( 28, 35)   
    DRY( 28, 36)   DRY( 28, 37)   DRY( 28, 38)   DRY( 28, 39)   DRY( 28, 40)   
    DRY( 29,  1)   DRY( 29,  2)   DRY( 29,  3)   DRY( 29,  4)   DRY( 29,  5)   
    DRY( 29,  6)   DRY( 29,  7)   DRY( 29,  8)   DRY( 29,  9)   DRY( 29, 10)   
    DRY( 29, 11)   DRY( 29, 12)   DRY( 29, 13)   DRY( 29, 14)   DRY( 29, 15)   
    DRY( 29, 16)   DRY( 29, 17)   DRY( 29, 18)   DRY( 29, 19)   DRY( 29, 20)   
    DRY( 29, 21)   DRY( 29, 22)   DRY( 29, 23)   DRY( 29, 24)   DRY( 29, 25)   
    DRY( 29, 26)   DRY( 29, 27)   DRY( 29, 28)   DRY( 29, 29)   DRY( 29, 30)   
    DRY( 29, 31)   DRY( 29, 32)   DRY( 29, 33)   DRY( 29, 34)   DRY( 29, 35)   
    DRY( 29, 36)   DRY( 29, 37)   DRY( 29, 38)   DRY( 29, 39)   DRY( 29, 40)   
    DRY( 30,  1)   DRY( 30,  2)   DRY( 30,  3)   DRY( 30,  4)   DRY( 30,  5)   
    DRY( 30,  6)   DRY( 30,  7)   DRY( 30,  8)   DRY( 30,  9)   DRY( 30, 10)   
    DRY( 30, 11)   DRY( 30, 12)   DRY( 30, 13)   DRY( 30, 14)   DRY( 30, 15)   
    DRY( 30, 16)   DRY( 30, 17)   DRY( 30, 18)   DRY( 30, 19)   DRY( 30, 20)   
    DRY( 30, 21)   DRY( 30, 22)   DRY( 30, 23)   DRY( 30, 24)   DRY( 30, 25)   
    DRY( 30, 26)   DRY( 30, 27)   DRY( 30, 28)   DRY( 30, 29)   DRY( 30, 30)   
    DRY( 30, 31)   DRY( 30, 32)   DRY( 30, 33)   DRY( 30, 34)   DRY( 30, 35)   
    DRY( 30, 36)   DRY( 30, 37)   DRY( 30, 38)   DRY( 30, 39)   DRY( 30, 40)   
    DRY( 31,  1)   DRY( 31,  2)   DRY( 31,  3)   DRY( 31,  4)   DRY( 31,  5)   
    DRY( 31,  6)   DRY( 31,  7)   DRY( 31,  8)   DRY( 31,  9)   DRY( 31, 10)   
    DRY( 31, 11)   DRY( 31, 12)   DRY( 31, 13)   DRY( 31, 14)   DRY( 31, 15)   
    DRY( 31, 16)   DRY( 31, 17)   DRY( 31, 18)   DRY( 31, 19)   DRY( 31, 20)   
    DRY( 31, 21)   DRY( 31, 22)   DRY( 31, 23)   DRY( 31, 24)   DRY( 31, 25)   
    DRY( 31, 26)   DRY( 31, 27)   DRY( 31, 28)   DRY( 31, 29)   DRY( 31, 30)   
    DRY( 31, 31)   DRY( 31, 32)   DRY( 31, 33)   DRY( 31, 34)   DRY( 31, 35)   
    DRY( 31, 36)   DRY( 31, 37)   DRY( 31, 38)   DRY( 31, 39)   DRY( 31, 40)   
    DRY( 32,  1)   DRY( 32,  2)   DRY( 32,  3)   DRY( 32,  4)   DRY( 32,  5)   
    DRY( 32,  6)   DRY( 32,  7)   DRY( 32,  8)   DRY( 32,  9)   DRY( 32, 10)   
    DRY( 32, 11)   DRY( 32, 12)   DRY( 32, 13)   DRY( 32, 14)   DRY( 32, 15)   
    DRY( 32, 16)   DRY( 32, 17)   DRY( 32, 18)   DRY( 32, 19)   DRY( 32, 20)   
    DRY( 32, 21)   DRY( 32, 22)   DRY( 32, 23)   DRY( 32, 24)   DRY( 32, 25)   
    DRY( 32, 26)   DRY( 32, 27)   DRY( 32, 28)   DRY( 32, 29)   DRY( 32, 30)   
    DRY( 32, 31)   DRY( 32, 32)   DRY( 32, 33)   DRY( 32, 34)   DRY( 32, 35)   
    DRY( 32, 36)   DRY( 32, 37)   DRY( 32, 38)   DRY( 32, 39)   DRY( 32, 40)   
    DRY( 33,  1)   DRY( 33,  2)   DRY( 33,  3)   DRY( 33,  4)   DRY( 33,  5)   
    DRY( 33,  6)   DRY( 33,  7)   DRY( 33,  8)   DRY( 33,  9)   DRY( 33, 10)   
    DRY( 33, 11)   DRY( 33, 12)   DRY( 33, 13)   DRY( 33, 14)   DRY( 33, 15)   
    DRY( 33, 16)   DRY( 33, 17)   DRY( 33, 18)   DRY( 33, 19)   DRY( 33, 20)   
    DRY( 33, 21)   DRY( 33, 22)   DRY( 33, 23)   DRY( 33, 24)   DRY( 33, 25)   
    DRY( 33, 26)   DRY( 33, 27)   DRY( 33, 28)   DRY( 33, 29)   DRY( 33, 30)   
    DRY( 33, 31)   DRY( 33, 32)   DRY( 33, 33)   DRY( 33, 34)   DRY( 33, 35)   
    DRY( 33, 36)   DRY( 33, 37)   DRY( 33, 38)   DRY( 33, 39)   DRY( 33, 40)   
    DRY( 34,  1)   DRY( 34,  2)   DRY( 34,  3)   DRY( 34,  4)   DRY( 34,  5)   
    DRY( 34,  6)   DRY( 34,  7)   DRY( 34,  8)   DRY( 34,  9)   DRY( 34, 10)   
    DRY( 34, 11)   DRY( 34, 12)   DRY( 34, 13)   DRY( 34, 14)   DRY( 34, 15)   
    DRY( 34, 16)   DRY( 34, 17)   DRY( 34, 18)   DRY( 34, 19)   DRY( 34, 20)   
    DRY( 34, 21)   DRY( 34, 22)   DRY( 34, 23)   DRY( 34, 24)   DRY( 34, 25)   
    DRY( 34, 26)   DRY( 34, 27)   DRY( 34, 28)   DRY( 34, 29)   DRY( 34, 30)   
    DRY( 34, 31)   DRY( 34, 32)   DRY( 34, 33)   DRY( 34, 34)   DRY( 34, 35)   
    DRY( 34, 36)   DRY( 34, 37)   DRY( 34, 38)   DRY( 34, 39)   DRY( 34, 40)   
    DRY( 35,  1)   DRY( 35,  2)   DRY( 35,  3)   DRY( 35,  4)   DRY( 35,  5)   
    DRY( 35,  6)   DRY( 35,  7)   DRY( 35,  8)   DRY( 35,  9)   DRY( 35, 10)   
    DRY( 35, 11)   DRY( 35, 12)   DRY( 35, 13)   DRY( 35, 14)   DRY( 35, 15)   
    DRY( 35, 16)   DRY( 35, 17)   DRY( 35, 18)   DRY( 35, 19)   DRY( 35, 20)   
    DRY( 35, 21)   DRY( 35, 22)   DRY( 35, 23)   DRY( 35, 24)   DRY( 35, 25)   
    DRY( 35, 26)   DRY( 35, 27)   DRY( 35, 28)   DRY( 35, 29)   DRY( 35, 30)   
    DRY( 35, 31)   DRY( 35, 32)   DRY( 35, 33)   DRY( 35, 34)   DRY( 35, 35)   
    DRY( 35, 36)   DRY( 35, 37)   DRY( 35, 38)   DRY( 35, 39)   DRY( 35, 40)   
    DRY( 36,  1)   DRY( 36,  2)   DRY( 36,  3)   DRY( 36,  4)   DRY( 36,  5)   
    DRY( 36,  6)   DRY( 36,  7)   DRY( 36,  8)   DRY( 36,  9)   DRY( 36, 10)   
    DRY( 36, 11)   DRY( 36, 12)   DRY( 36, 13)   DRY( 36, 14)   DRY( 36, 15)   
    DRY( 36, 16)   DRY( 36, 17)   DRY( 36, 18)   DRY( 36, 19)   DRY( 36, 20)   
    DRY( 36, 21)   DRY( 36, 22)   DRY( 36, 23)   DRY( 36, 24)   DRY( 36, 25)   
    DRY( 36, 26)   DRY( 36, 27)   DRY( 36, 28)   DRY( 36, 29)   DRY( 36, 30)   
    DRY( 36, 31)   DRY( 36, 32)   DRY( 36, 33)   DRY( 36, 34)   DRY( 36, 35)   
    DRY( 36, 36)   DRY( 36, 37)   DRY( 36, 38)   DRY( 36, 39)   DRY( 36, 40)   
    DRY( 37,  1)   DRY( 37,  2)   DRY( 37,  3)   DRY( 37,  4)   DRY( 37,  5)   
    DRY( 37,  6)   DRY( 37,  7)   DRY( 37,  8)   DRY( 37,  9)   DRY( 37, 10)   
    DRY( 37, 11)   DRY( 37, 12)   DRY( 37, 13)   DRY( 37, 14)   DRY( 37, 15)   
    DRY( 37, 16)   DRY( 37, 17)   DRY( 37, 18)   DRY( 37, 19)   DRY( 37, 20)   
    DRY( 37, 21)   DRY( 37, 22)   DRY( 37, 23)   DRY( 37, 24)   DRY( 37, 25)   
    DRY( 37, 26)   DRY( 37, 27)   DRY( 37, 28)   DRY( 37, 29)   DRY( 37, 30)   
    DRY( 37, 31)   DRY( 37, 32)   DRY( 37, 33)   DRY( 37, 34)   DRY( 37, 35)   
    DRY( 37, 36)   DRY( 37, 37)   DRY( 37, 38)   DRY( 37, 39)   DRY( 37, 40)   
    DRY( 38,  1)   DRY( 38,  2)   DRY( 38,  3)   DRY( 38,  4)   DRY( 38,  5)   
    DRY( 38,  6)   DRY( 38,  7)   DRY( 38,  8)   DRY( 38,  9)   DRY( 38, 10)   
    DRY( 38, 11)   DRY( 38, 12)   DRY( 38, 13)   DRY( 38, 14)   DRY( 38, 15)   
    DRY( 38, 16)   DRY( 38, 17)   DRY( 38, 18)   DRY( 38, 19)   DRY( 38, 20)   
    DRY( 38, 21)   DRY( 38, 22)   DRY( 38, 23)   DRY( 38, 24)   DRY( 38, 25)   
    DRY( 38, 26)   DRY( 38, 27)   DRY( 38, 28)   DRY( 38, 29)   DRY( 38, 30)   
    DRY( 38, 31)   DRY( 38, 32)   DRY( 38, 33)   DRY( 38, 34)   DRY( 38, 35)   
    DRY( 38, 36)   DRY( 38, 37)   DRY( 38, 38)   DRY( 38, 39)   DRY( 38, 40)   
    DRY( 39,  1)   DRY( 39,  2)   DRY( 39,  3)   DRY( 39,  4)   DRY( 39,  5)   
    DRY( 39,  6)   DRY( 39,  7)   DRY( 39,  8)   DRY( 39,  9)   DRY( 39, 10)   
    DRY( 39, 11)   DRY( 39, 12)   DRY( 39, 13)   DRY( 39, 14)   DRY( 39, 15)   
    DRY( 39, 16)   DRY( 39, 17)   DRY( 39, 18)   DRY( 39, 19)   DRY( 39, 20)   
    DRY( 39, 21)   DRY( 39, 22)   DRY( 39, 23)   DRY( 39, 24)   DRY( 39, 25)   
    DRY( 39, 26)   DRY( 39, 27)   DRY( 39, 28)   DRY( 39, 29)   DRY( 39, 30)   
    DRY( 39, 31)   DRY( 39, 32)   DRY( 39, 33)   DRY( 39, 34)   DRY( 39, 35)   
    DRY( 39, 36)   DRY( 39, 37)   DRY( 39, 38)   DRY( 39, 39)   DRY( 39, 40)   
    DRY( 40,  1)   DRY( 40,  2)   DRY( 40,  3)   DRY( 40,  4)   DRY( 40,  5)   
    DRY( 40,  6)   DRY( 40,  7)   DRY( 40,  8)   DRY( 40,  9)   DRY( 40, 10)   
    DRY( 40, 11)   DRY( 40, 12)   DRY( 40, 13)   DRY( 40, 14)   DRY( 40, 15)   
    DRY( 40, 16)   DRY( 40, 17)   DRY( 40, 18)   DRY( 40, 19)   DRY( 40, 20)   
    DRY( 40, 21)   DRY( 40, 22)   DRY( 40, 23)   DRY( 40, 24)   DRY( 40, 25)   
    DRY( 40, 26)   DRY( 40, 27)   DRY( 40, 28)   DRY( 40, 29)   DRY( 40, 30)   
    DRY( 40, 31)   DRY( 40, 32)   DRY( 40, 33)   DRY( 40, 34)   DRY( 40, 35)   
    DRY( 40, 36)   DRY( 40, 37)   DRY( 40, 38)   DRY( 40, 39)   DRY( 40, 40)   

 CELL CONVERSIONS FOR ITER.=  1  LAYER=  3  STEP=  1  PERIOD=   1   (ROW,COL)
    DRY(  1,  1)   DRY(  1,  2)   DRY(  1,  3)   DRY(  1,  4)   DRY(  1,  5)   
    DRY(  1,  6)   DRY(  1,  7)   DRY(  1,  8)   DRY(  1,  9)   DRY(  1, 10)   
    DRY(  1, 11)   DRY(  1, 12)   DRY(  1, 13)   DRY(  1, 14)   DRY(  1, 15)   
    DRY(  1, 16)   DRY(  1, 17)   DRY(  1, 18)   DRY(  1, 19)   DRY(  1, 20)   
    DRY(  1, 21)   DRY(  1, 22)   DRY(  1, 23)   DRY(  1, 24)   DRY(  1, 25)   
    DRY(  1, 26)   DRY(  1, 27)   DRY(  1, 28)   DRY(  1, 29)   DRY(  1, 30)   
    DRY(  1, 31)   DRY(  1, 32)   DRY(  1, 33)   DRY(  1, 34)   DRY(  1, 35)   
    DRY(  1, 36)   DRY(  1, 37)   DRY(  1, 38)   DRY(  1, 39)   DRY(  1, 40)   
    DRY(  2,  1)   DRY(  2,  2)   DRY(  2,  3)   DRY(  2,  4)   DRY(  2,  5)   
    DRY(  2,  6)   DRY(  2,  7)   DRY(  2,  8)   DRY(  2,  9)   DRY(  2, 10)   
    DRY(  2, 11)   DRY(  2, 12)   DRY(  2, 13)   DRY(  2, 14)   DRY(  2, 15)   
    DRY(  2, 16)   DRY(  2, 17)   DRY(  2, 18)   DRY(  2, 19)   DRY(  2, 20)   
    DRY(  2, 21)   DRY(  2, 22)   DRY(  2, 23)   DRY(  2, 24)   DRY(  2, 25)   
    DRY(  2, 26)   DRY(  2, 27)   DRY(  2, 28)   DRY(  2, 29)   DRY(  2, 30)   
    DRY(  2, 31)   DRY(  2, 32)   DRY(  2, 33)   DRY(  2, 34)   DRY(  2, 35)   
    DRY(  2, 36)   DRY(  2, 37)   DRY(  2, 38)   DRY(  2, 39)   DRY(  2, 40)   
    DRY(  3,  1)   DRY(  3,  2)   DRY(  3,  3)   DRY(  3,  4)   DRY(  3,  5)   
    DRY(  3,  6)   DRY(  3,  7)   DRY(  3,  8)   DRY(  3,  9)   DRY(  3, 10)   
    DRY(  3, 11)   DRY(  3, 12)   DRY(  3, 13)   DRY(  3, 14)   DRY(  3, 15)   
    DRY(  3, 16)   DRY(  3, 17)   DRY(  3, 18)   DRY(  3, 19)   DRY(  3, 20)   
    DRY(  3, 21)   DRY(  3, 22)   DRY(  3, 23)   DRY(  3, 24)   DRY(  3, 25)   
    DRY(  3, 26)   DRY(  3, 27)   DRY(  3, 28)   DRY(  3, 29)   DRY(  3, 30)   
    DRY(  3, 31)   DRY(  3, 32)   DRY(  3, 33)   DRY(  3, 34)   DRY(  3, 35)   
    DRY(  3, 36)   DRY(  3, 37)   DRY(  3, 38)   DRY(  3, 39)   DRY(  3, 40)   
    DRY(  4,  1)   DRY(  4,  2)   DRY(  4,  3)   DRY(  4,  4)   DRY(  4,  5)   
    DRY(  4,  6)   DRY(  4,  7)   DRY(  4,  8)   DRY(  4,  9)   DRY(  4, 10)   
    DRY(  4, 11)   DRY(  4, 12)   DRY(  4, 13)   DRY(  4, 14)   DRY(  4, 15)   
    DRY(  4, 16)   DRY(  4, 17)   DRY(  4, 18)   DRY(  4, 19)   DRY(  4, 20)   
    DRY(  4, 21)   DRY(  4, 22)   DRY(  4, 23)   DRY(  4, 24)   DRY(  4, 25)   
    DRY(  4, 26)   DRY(  4, 27)   DRY(  4, 28)   DRY(  4, 29)   DRY(  4, 30)   
    DRY(  4, 31)   DRY(  4, 32)   DRY(  4, 33)   DRY(  4, 34)   DRY(  4, 35)   
    DRY(  4, 36)   DRY(  4, 37)   DRY(  4, 38)   DRY(  4, 39)   DRY(  4, 40)   
    DRY(  5,  1)   DRY(  5,  2)   DRY(  5,  3)   DRY(  5,  4)   DRY(  5,  5)   
    DRY(  5,  6)   DRY(  5,  7)   DRY(  5,  8)   DRY(  5,  9)   DRY(  5, 10)   
    DRY(  5, 11)   DRY(  5, 12)   DRY(  5, 13)   DRY(  5, 14)   DRY(  5, 15)   
    DRY(  5, 16)   DRY(  5, 17)   DRY(  5, 18)   DRY(  5, 19)   DRY(  5, 20)   
    DRY(  5, 21)   DRY(  5, 22)   DRY(  5, 23)   DRY(  5, 24)   DRY(  5, 25)   
    DRY(  5, 26)   DRY(  5, 27)   DRY(  5, 28)   DRY(  5, 29)   DRY(  5, 30)   
    DRY(  5, 31)   DRY(  5, 32)   DRY(  5, 33)   DRY(  5, 34)   DRY(  5, 35)   
    DRY(  5, 36)   DRY(  5, 37)   DRY(  5, 38)   DRY(  5, 39)   DRY(  5, 40)   
    DRY(  6,  1)   DRY(  6,  2)   DRY(  6,  3)   DRY(  6,  4)   DRY(  6,  5)   
    DRY(  6,  6)   DRY(  6,  7)   DRY(  6,  8)   DRY(  6,  9)   DRY(  6, 10)   
    DRY(  6, 11)   DRY(  6, 12)   DRY(  6, 13)   DRY(  6, 14)   DRY(  6, 15)   
    DRY(  6, 16)   DRY(  6, 17)   DRY(  6, 18)   DRY(  6, 19)   DRY(  6, 20)   
    DRY(  6, 21)   DRY(  6, 22)   DRY(  6, 23)   DRY(  6, 24)   DRY(  6, 25)   
    DRY(  6, 26)   DRY(  6, 27)   DRY(  6, 28)   DRY(  6, 29)   DRY(  6, 30)   
    DRY(  6, 31)   DRY(  6, 32)   DRY(  6, 33)   DRY(  6, 34)   DRY(  6, 35)   
    DRY(  6, 36)   DRY(  6, 37)   DRY(  6, 38)   DRY(  6, 39)   DRY(  6, 40)   
    DRY(  7,  1)   DRY(  7,  2)   DRY(  7,  3)   DRY(  7,  4)   DRY(  7,  5)   
    DRY(  7,  6)   DRY(  7,  7)   DRY(  7,  8)   DRY(  7,  9)   DRY(  7, 10)   
    DRY(  7, 11)   DRY(  7, 12)   DRY(  7, 13)   DRY(  7, 14)   DRY(  7, 15)   
    DRY(  7, 16)   DRY(  7, 17)   DRY(  7, 18)   DRY(  7, 19)   DRY(  7, 20)   
    DRY(  7, 21)   DRY(  7, 22)   DRY(  7, 23)   DRY(  7, 24)   DRY(  7, 25)   
    DRY(  7, 26)   DRY(  7, 27)   DRY(  7, 28)   DRY(  7, 29)   DRY(  7, 30)   
    DRY(  7, 31)   DRY(  7, 32)   DRY(  7, 33)   DRY(  7, 34)   DRY(  7, 35)   
    DRY(  7, 36)   DRY(  7, 37)   DRY(  7, 38)   DRY(  7, 39)   DRY(  7, 40)   
    DRY(  8,  1)   DRY(  8,  2)   DRY(  8,  3)   DRY(  8,  4)   DRY(  8,  5)   
    DRY(  8,  6)   DRY(  8,  7)   DRY(  8,  8)   DRY(  8,  9)   DRY(  8, 10)   
    DRY(  8, 11)   DRY(  8, 12)   DRY(  8, 13)   DRY(  8, 14)   DRY(  8, 15)   
    DRY(  8, 16)   DRY(  8, 17)   DRY(  8, 18)   DRY(  8, 19)   DRY(  8, 20)   
    DRY(  8, 21)   DRY(  8, 22)   DRY(  8, 23)   DRY(  8, 24)   DRY(  8, 25)   
    DRY(  8, 26)   DRY(  8, 27)   DRY(  8, 28)   DRY(  8, 29)   DRY(  8, 30)   
    DRY(  8, 31)   DRY(  8, 32)   DRY(  8, 33)   DRY(  8, 34)   DRY(  8, 35)   
    DRY(  8, 36)   DRY(  8, 37)   DRY(  8, 38)   DRY(  8, 39)   DRY(  8, 40)   
    DRY(  9,  1)   DRY(  9,  2)   DRY(  9,  3)   DRY(  9,  4)   DRY(  9,  5)   
    DRY(  9,  6)   DRY(  9,  7)   DRY(  9,  8)   DRY(  9,  9)   DRY(  9, 10)   
    DRY(  9, 11)   DRY(  9, 12)   DRY(  9, 13)   DRY(  9, 14)   DRY(  9, 15)   
    DRY(  9, 16)   DRY(  9, 17)   DRY(  9, 18)   DRY(  9, 19)   DRY(  9, 20)   
    DRY(  9, 21)   DRY(  9, 22)   DRY(  9, 23)   DRY(  9, 24)   DRY(  9, 25)   
    DRY(  9, 26)   DRY(  9, 27)   DRY(  9, 28)   DRY(  9, 29)   DRY(  9, 30)   
    DRY(  9, 31)   DRY(  9, 32)   DRY(  9, 33)   DRY(  9, 34)   DRY(  9, 35)   
    DRY(  9, 36)   DRY(  9, 37)   DRY(  9, 38)   DRY(  9, 39)   DRY(  9, 40)   
    DRY( 10,  1)   DRY( 10,  2)   DRY( 10,  3)   DRY( 10,  4)   DRY( 10,  5)   
    DRY( 10,  6)   DRY( 10,  7)   DRY( 10,  8)   DRY( 10,  9)   DRY( 10, 10)   
    DRY( 10, 11)   DRY( 10, 12)   DRY( 10, 13)   DRY( 10, 14)   DRY( 10, 15)   
    DRY( 10, 16)   DRY( 10, 17)   DRY( 10, 18)   DRY( 10, 19)   DRY( 10, 20)   
    DRY( 10, 21)   DRY( 10, 22)   DRY( 10, 23)   DRY( 10, 24)   DRY( 10, 25)   
    DRY( 10, 26)   DRY( 10, 27)   DRY( 10, 28)   DRY( 10, 29)   DRY( 10, 30)   
    DRY( 10, 31)   DRY( 10, 32)   DRY( 10, 33)   DRY( 10, 34)   DRY( 10, 35)   
    DRY( 10, 36)   DRY( 10, 37)   DRY( 10, 38)   DRY( 10, 39)   DRY( 10, 40)   
    DRY( 11,  1)   DRY( 11,  2)   DRY( 11,  3)   DRY( 11,  4)   DRY( 11,  5)   
    DRY( 11,  6)   DRY( 11,  7)   DRY( 11,  8)   DRY( 11,  9)   DRY( 11, 10)   
    DRY( 11, 11)   DRY( 11, 12)   DRY( 11, 13)   DRY( 11, 14)   DRY( 11, 15)   
    DRY( 11, 16)   DRY( 11, 17)   DRY( 11, 18)   DRY( 11, 19)   DRY( 11, 20)   
    DRY( 11, 21)   DRY( 11, 22)   DRY( 11, 23)   DRY( 11, 24)   DRY( 11, 25)   
    DRY( 11, 26)   DRY( 11, 27)   DRY( 11, 28)   DRY( 11, 29)   DRY( 11, 30)   
    DRY( 11, 31)   DRY( 11, 32)   DRY( 11, 33)   DRY( 11, 34)   DRY( 11, 35)   
    DRY( 11, 36)   DRY( 11, 37)   DRY( 11, 38)   DRY( 11, 39)   DRY( 11, 40)   
    DRY( 12,  1)   DRY( 12,  2)   DRY( 12,  3)   DRY( 12,  4)   DRY( 12,  5)   
    DRY( 12,  6)   DRY( 12,  7)   DRY( 12,  8)   DRY( 12,  9)   DRY( 12, 10)   
    DRY( 12, 11)   DRY( 12, 12)   DRY( 12, 13)   DRY( 12, 14)   DRY( 12, 15)   
    DRY( 12, 16)   DRY( 12, 17)   DRY( 12, 18)   DRY( 12, 19)   DRY( 12, 20)   
    DRY( 12, 21)   DRY( 12, 22)   DRY( 12, 23)   DRY( 12, 24)   DRY( 12, 25)   
    DRY( 12, 26)   DRY( 12, 27)   DRY( 12, 28)   DRY( 12, 29)   DRY( 12, 30)   
    DRY( 12, 31)   DRY( 12, 32)   DRY( 12, 33)   DRY( 12, 34)   DRY( 12, 35)   
    DRY( 12, 36)   DRY( 12, 37)   DRY( 12, 38)   DRY( 12, 39)   DRY( 12, 40)   
    DRY( 13,  1)   DRY( 13,  2)   DRY( 13,  3)   DRY( 13,  4)   DRY( 13,  5)   
    DRY( 13,  6)   DRY( 13,  7)   DRY( 13,  8)   DRY( 13,  9)   DRY( 13, 10)   
    DRY( 13, 11)   DRY( 13, 12)   DRY( 13, 13)   DRY( 13, 14)   DRY( 13, 15)   
    DRY( 13, 16)   DRY( 13, 17)   DRY( 13, 18)   DRY( 13, 19)   DRY( 13, 20)   
    DRY( 13, 21)   DRY( 13, 22)   DRY( 13, 23)   DRY( 13, 24)   DRY( 13, 25)   
    DRY( 13, 26)   DRY( 13, 27)   DRY( 13, 28)   DRY( 13, 29)   DRY( 13, 30)   
    DRY( 13, 31)   DRY( 13, 32)   DRY( 13, 33)   DRY( 13, 34)   DRY( 13, 35)   
    DRY( 13, 36)   DRY( 13, 37)   DRY( 13, 38)   DRY( 13, 39)   DRY( 13, 40)   
    DRY( 14,  1)   DRY( 14,  2)   DRY( 14,  3)   DRY( 14,  4)   DRY( 14,  5)   
    DRY( 14,  6)   DRY( 14,  7)   DRY( 14,  8)   DRY( 14,  9)   DRY( 14, 10)   
    DRY( 14, 11)   DRY( 14, 12)   DRY( 14, 13)   DRY( 14, 14)   DRY( 14, 15)   
    DRY( 14, 16)   DRY( 14, 17)   DRY( 14, 18)   DRY( 14, 19)   DRY( 14, 20)   
    DRY( 14, 21)   DRY( 14, 22)   DRY( 14, 23)   DRY( 14, 24)   DRY( 14, 25)   
    DRY( 14, 26)   DRY( 14, 27)   DRY( 14, 28)   DRY( 14, 29)   DRY( 14, 30)   
    DRY( 14, 31)   DRY( 14, 32)   DRY( 14, 33)   DRY( 14, 34)   DRY( 14, 35)   
    DRY( 14, 36)   DRY( 14, 37)   DRY( 14, 38)   DRY( 14, 39)   DRY( 14, 40)   
    DRY( 15,  1)   DRY( 15,  2)   DRY( 15,  3)   DRY( 15,  4)   DRY( 15,  5)   
    DRY( 15,  6)   DRY( 15,  7)   DRY( 15,  8)   DRY( 15,  9)   DRY( 15, 10)   
    DRY( 15, 11)   DRY( 15, 12)   DRY( 15, 13)   DRY( 15, 14)   DRY( 15, 15)   
    DRY( 15, 16)   DRY( 15, 17)   DRY( 15, 18)   DRY( 15, 19)   DRY( 15, 20)   
    DRY( 15, 21)   DRY( 15, 22)   DRY( 15, 23)   DRY( 15, 24)   DRY( 15, 25)   
    DRY( 15, 26)   DRY( 15, 27)   DRY( 15, 28)   DRY( 15, 29)   DRY( 15, 30)   
    DRY( 15, 31)   DRY( 15, 32)   DRY( 15, 33)   DRY( 15, 34)   DRY( 15, 35)   
    DRY( 15, 36)   DRY( 15, 37)   DRY( 15, 38)   DRY( 15, 39)   DRY( 15, 40)   
    DRY( 16,  1)   DRY( 16,  2)   DRY( 16,  3)   DRY( 16,  4)   DRY( 16,  5)   
    DRY( 16,  6)   DRY( 16,  7)   DRY( 16,  8)   DRY( 16,  9)   DRY( 16, 10)   
    DRY( 16, 11)   DRY( 16, 12)   DRY( 16, 13)   DRY( 16, 14)   DRY( 16, 15)   
    DRY( 16, 16)   DRY( 16, 17)   DRY( 16, 18)   DRY( 16, 19)   DRY( 16, 20)   
    DRY( 16, 21)   DRY( 16, 22)   DRY( 16, 23)   DRY( 16, 24)   DRY( 16, 25)   
    DRY( 16, 26)   DRY( 16, 27)   DRY( 16, 28)   DRY( 16, 29)   DRY( 16, 30)   
    DRY( 16, 31)   DRY( 16, 32)   DRY( 16, 33)   DRY( 16, 34)   DRY( 16, 35)   
    DRY( 16, 36)   DRY( 16, 37)   DRY( 16, 38)   DRY( 16, 39)   DRY( 16, 40)   
    DRY( 17,  1)   DRY( 17,  2)   DRY( 17,  3)   DRY( 17,  4)   DRY( 17,  5)   
    DRY( 17,  6)   DRY( 17,  7)   DRY( 17,  8)   DRY( 17,  9)   DRY( 17, 10)   
    DRY( 17, 11)   DRY( 17, 12)   DRY( 17, 13)   DRY( 17, 14)   DRY( 17, 15)   
    DRY( 17, 16)   DRY( 17, 17)   DRY( 17, 18)   DRY( 17, 19)   DRY( 17, 20)   
    DRY( 17, 21)   DRY( 17, 22)   DRY( 17, 23)   DRY( 17, 24)   DRY( 17, 25)   
    DRY( 17, 26)   DRY( 17, 27)   DRY( 17, 28)   DRY( 17, 29)   DRY( 17, 30)   
    DRY( 17, 31)   DRY( 17, 32)   DRY( 17, 33)   DRY( 17, 34)   DRY( 17, 35)   
    DRY( 17, 36)   DRY( 17, 37)   DRY( 17, 38)   DRY( 17, 39)   DRY( 17, 40)   
    DRY( 18,  1)   DRY( 18,  2)   DRY( 18,  3)   DRY( 18,  4)   DRY( 18,  5)   
    DRY( 18,  6)   DRY( 18,  7)   DRY( 18,  8)   DRY( 18,  9)   DRY( 18, 10)   
    DRY( 18, 11)   DRY( 18, 12)   DRY( 18, 13)   DRY( 18, 14)   DRY( 18, 15)   
    DRY( 18, 16)   DRY( 18, 17)   DRY( 18, 18)   DRY( 18, 19)   DRY( 18, 20)   
    DRY( 18, 21)   DRY( 18, 22)   DRY( 18, 23)   DRY( 18, 24)   DRY( 18, 25)   
    DRY( 18, 26)   DRY( 18, 27)   DRY( 18, 28)   DRY( 18, 29)   DRY( 18, 30)   
    DRY( 18, 31)   DRY( 18, 32)   DRY( 18, 33)   DRY( 18, 34)   DRY( 18, 35)   
    DRY( 18, 36)   DRY( 18, 37)   DRY( 18, 38)   DRY( 18, 39)   DRY( 18, 40)   
    DRY( 19,  1)   DRY( 19,  2)   DRY( 19,  3)   DRY( 19,  4)   DRY( 19,  5)   
    DRY( 19,  6)   DRY( 19,  7)   DRY( 19,  8)   DRY( 19,  9)   DRY( 19, 10)   
    DRY( 19, 11)   DRY( 19, 12)   DRY( 19, 13)   DRY( 19, 14)   DRY( 19, 15)   
    DRY( 19, 16)   DRY( 19, 17)   DRY( 19, 18)   DRY( 19, 19)   DRY( 19, 20)   
    DRY( 19, 21)   DRY( 19, 22)   DRY( 19, 23)   DRY( 19, 24)   DRY( 19, 25)   
    DRY( 19, 26)   DRY( 19, 27)   DRY( 19, 28)   DRY( 19, 29)   DRY( 19, 30)   
    DRY( 19, 31)   DRY( 19, 32)   DRY( 19, 33)   DRY( 19, 34)   DRY( 19, 35)   
    DRY( 19, 36)   DRY( 19, 37)   DRY( 19, 38)   DRY( 19, 39)   DRY( 19, 40)   
    DRY( 20,  1)   DRY( 20,  2)   DRY( 20,  3)   DRY( 20,  4)   DRY( 20,  5)   
    DRY( 20,  6)   DRY( 20,  7)   DRY( 20,  8)   DRY( 20,  9)   DRY( 20, 10)   
    DRY( 20, 11)   DRY( 20, 12)   DRY( 20, 13)   DRY( 20, 14)   DRY( 20, 15)   
    DRY( 20, 16)   DRY( 20, 17)   DRY( 20, 18)   DRY( 20, 19)   DRY( 20, 20)   
    DRY( 20, 21)   DRY( 20, 22)   DRY( 20, 23)   DRY( 20, 24)   DRY( 20, 25)   
    DRY( 20, 26)   DRY( 20, 27)   DRY( 20, 28)   DRY( 20, 29)   DRY( 20, 30)   
    DRY( 20, 31)   DRY( 20, 32)   DRY( 20, 33)   DRY( 20, 34)   DRY( 20, 35)   
    DRY( 20, 36)   DRY( 20, 37)   DRY( 20, 38)   DRY( 20, 39)   DRY( 20, 40)   
    DRY( 21,  1)   DRY( 21,  2)   DRY( 21,  3)   DRY( 21,  4)   DRY( 21,  5)   
    DRY( 21,  6)   DRY( 21,  7)   DRY( 21,  8)   DRY( 21,  9)   DRY( 21, 10)   
    DRY( 21, 11)   DRY( 21, 12)   DRY( 21, 13)   DRY( 21, 14)   DRY( 21, 15)   
    DRY( 21, 16)   DRY( 21, 17)   DRY( 21, 18)   DRY( 21, 19)   DRY( 21, 20)   
    DRY( 21, 21)   DRY( 21, 22)   DRY( 21, 23)   DRY( 21, 24)   DRY( 21, 25)   
    DRY( 21, 26)   DRY( 21, 27)   DRY( 21, 28)   DRY( 21, 29)   DRY( 21, 30)   
    DRY( 21, 31)   DRY( 21, 32)   DRY( 21, 33)   DRY( 21, 34)   DRY( 21, 35)   
    DRY( 21, 36)   DRY( 21, 37)   DRY( 21, 38)   DRY( 21, 39)   DRY( 21, 40)   
    DRY( 22,  1)   DRY( 22,  2)   DRY( 22,  3)   DRY( 22,  4)   DRY( 22,  5)   
    DRY( 22,  6)   DRY( 22,  7)   DRY( 22,  8)   DRY( 22,  9)   DRY( 22, 10)   
    DRY( 22, 11)   DRY( 22, 12)   DRY( 22, 13)   DRY( 22, 14)   DRY( 22, 15)   
    DRY( 22, 16)   DRY( 22, 17)   DRY( 22, 18)   DRY( 22, 19)   DRY( 22, 20)   
    DRY( 22, 21)   DRY( 22, 22)   DRY( 22, 23)   DRY( 22, 24)   DRY( 22, 25)   
    DRY( 22, 26)   DRY( 22, 27)   DRY( 22, 28)   DRY( 22, 29)   DRY( 22, 30)   
    DRY( 22, 31)   DRY( 22, 32)   DRY( 22, 33)   DRY( 22, 34)   DRY( 22, 35)   
    DRY( 22, 36)   DRY( 22, 37)   DRY( 22, 38)   DRY( 22, 39)   DRY( 22, 40)   
    DRY( 23,  1)   DRY( 23,  2)   DRY( 23,  3)   DRY( 23,  4)   DRY( 23,  5)   
    DRY( 23,  6)   DRY( 23,  7)   DRY( 23,  8)   DRY( 23,  9)   DRY( 23, 10)   
    DRY( 23, 11)   DRY( 23, 12)   DRY( 23, 13)   DRY( 23, 14)   DRY( 23, 15)   
    DRY( 23, 16)   DRY( 23, 17)   DRY( 23, 18)   DRY( 23, 19)   DRY( 23, 20)   
    DRY( 23, 21)   DRY( 23, 22)   DRY( 23, 23)   DRY( 23, 24)   DRY( 23, 25)   
    DRY( 23, 26)   DRY( 23, 27)   DRY( 23, 28)   DRY( 23, 29)   DRY( 23, 30)   
    DRY( 23, 31)   DRY( 23, 32)   DRY( 23, 33)   DRY( 23, 34)   DRY( 23, 35)   
    DRY( 23, 36)   DRY( 23, 37)   DRY( 23, 38)   DRY( 23, 39)   DRY( 23, 40)   
    DRY( 24,  1)   DRY( 24,  2)   DRY( 24,  3)   DRY( 24,  4)   DRY( 24,  5)   
    DRY( 24,  6)   DRY( 24,  7)   DRY( 24,  8)   DRY( 24,  9)   DRY( 24, 10)   
    DRY( 24, 11)   DRY( 24, 12)   DRY( 24, 13)   DRY( 24, 14)   DRY( 24, 15)   
    DRY( 24, 16)   DRY( 24, 17)   DRY( 24, 18)   DRY( 24, 19)   DRY( 24, 20)   
    DRY( 24, 21)   DRY( 24, 22)   DRY( 24, 23)   DRY( 24, 24)   DRY( 24, 25)   
    DRY( 24, 26)   DRY( 24, 27)   DRY( 24, 28)   DRY( 24, 29)   DRY( 24, 30)   
    DRY( 24, 31)   DRY( 24, 32)   DRY( 24, 33)   DRY( 24, 34)   DRY( 24, 35)   
    DRY( 24, 36)   DRY( 24, 37)   DRY( 24, 38)   DRY( 24, 39)   DRY( 24, 40)   
    DRY( 25,  1)   DRY( 25,  2)   DRY( 25,  3)   DRY( 25,  4)   DRY( 25,  5)   
    DRY( 25,  6)   DRY( 25,  7)   DRY( 25,  8)   DRY( 25,  9)   DRY( 25, 10)   
    DRY( 25, 11)   DRY( 25, 12)   DRY( 25, 13)   DRY( 25, 14)   DRY( 25, 15)   
    DRY( 25, 16)   DRY( 25, 17)   DRY( 25, 18)   DRY( 25, 19)   DRY( 25, 20)   
    DRY( 25, 21)   DRY( 25, 22)   DRY( 25, 23)   DRY( 25, 24)   DRY( 25, 25)   
    DRY( 25, 26)   DRY( 25, 27)   DRY( 25, 28)   DRY( 25, 29)   DRY( 25, 30)   
    DRY( 25, 31)   DRY( 25, 32)   DRY( 25, 33)   DRY( 25, 34)   DRY( 25, 35)   
    DRY( 25, 36)   DRY( 25, 37)   DRY( 25, 38)   DRY( 25, 39)   DRY( 25, 40)   
    DRY( 26,  1)   DRY( 26,  2)   DRY( 26,  3)   DRY( 26,  4)   DRY( 26,  5)   
    DRY( 26,  6)   DRY( 26,  7)   DRY( 26,  8)   DRY( 26,  9)   DRY( 26, 10)   
    DRY( 26, 11)   DRY( 26, 12)   DRY( 26, 13)   DRY( 26, 14)   DRY( 26, 15)   
    DRY( 26, 16)   DRY( 26, 17)   DRY( 26, 18)   DRY( 26, 19)   DRY( 26, 20)   
    DRY( 26, 21)   DRY( 26, 22)   DRY( 26, 23)   DRY( 26, 24)   DRY( 26, 25)   
    DRY( 26, 26)   DRY( 26, 27)   DRY( 26, 28)   DRY( 26, 29)   DRY( 26, 30)   
    DRY( 26, 31)   DRY( 26, 32)   DRY( 26, 33)   DRY( 26, 34)   DRY( 26, 35)   
    DRY( 26, 36)   DRY( 26, 37)   DRY( 26, 38)   DRY( 26, 39)   DRY( 26, 40)   
    DRY( 27,  1)   DRY( 27,  2)   DRY( 27,  3)   DRY( 27,  4)   DRY( 27,  5)   
    DRY( 27,  6)   DRY( 27,  7)   DRY( 27,  8)   DRY( 27,  9)   DRY( 27, 10)   
    DRY( 27, 11)   DRY( 27, 12)   DRY( 27, 13)   DRY( 27, 14)   DRY( 27, 15)   
    DRY( 27, 16)   DRY( 27, 17)   DRY( 27, 18)   DRY( 27, 19)   DRY( 27, 20)   
    DRY( 27, 21)   DRY( 27, 22)   DRY( 27, 23)   DRY( 27, 24)   DRY( 27, 25)   
    DRY( 27, 26)   DRY( 27, 27)   DRY( 27, 28)   DRY( 27, 29)   DRY( 27, 30)   
    DRY( 27, 31)   DRY( 27, 32)   DRY( 27, 33)   DRY( 27, 34)   DRY( 27, 35)   
    DRY( 27, 36)   DRY( 27, 37)   DRY( 27, 38)   DRY( 27, 39)   DRY( 27, 40)   
    DRY( 28,  1)   DRY( 28,  2)   DRY( 28,  3)   DRY( 28,  4)   DRY( 28,  5)   
    DRY( 28,  6)   DRY( 28,  7)   DRY( 28,  8)   DRY( 28,  9)   DRY( 28, 10)   
    DRY( 28, 11)   DRY( 28, 12)   DRY( 28, 13)   DRY( 28, 14)   DRY( 28, 15)   
    DRY( 28, 16)   DRY( 28, 17)   DRY( 28, 18)   DRY( 28, 19)   DRY( 28, 20)   
    DRY( 28, 21)   DRY( 28, 22)   DRY( 28, 23)   DRY( 28, 24)   DRY( 28, 25)   
    DRY( 28, 26)   DRY( 28, 27)   DRY( 28, 28)   DRY( 28, 29)   DRY( 28, 30)   
    DRY( 28, 31)   DRY( 28, 32)   DRY( 28, 33)   DRY( 28, 34)   DRY( 28, 35)   
    DRY( 28, 36)   DRY( 28, 37)   DRY( 28, 38)   DRY( 28, 39)   DRY( 28, 40)   
    DRY( 29,  1)   DRY( 29,  2)   DRY( 29,  3)   DRY( 29,  4)   DRY( 29,  5)   
    DRY( 29,  6)   DRY( 29,  7)   DRY( 29,  8)   DRY( 29,  9)   DRY( 29, 10)   
    DRY( 29, 11)   DRY( 29, 12)   DRY( 29, 13)   DRY( 29, 14)   DRY( 29, 15)   
    DRY( 29, 16)   DRY( 29, 17)   DRY( 29, 18)   DRY( 29, 19)   DRY( 29, 20)   
    DRY( 29, 21)   DRY( 29, 22)   DRY( 29, 23)   DRY( 29, 24)   DRY( 29, 25)   
    DRY( 29, 26)   DRY( 29, 27)   DRY( 29, 28)   DRY( 29, 29)   DRY( 29, 30)   
    DRY( 29, 31)   DRY( 29, 32)   DRY( 29, 33)   DRY( 29, 34)   DRY( 29, 35)   
    DRY( 29, 36)   DRY( 29, 37)   DRY( 29, 38)   DRY( 29, 39)   DRY( 29, 40)   
    DRY( 30,  1)   DRY( 30,  2)   DRY( 30,  3)   DRY( 30,  4)   DRY( 30,  5)   
    DRY( 30,  6)   DRY( 30,  7)   DRY( 30,  8)   DRY( 30,  9)   DRY( 30, 10)   
    DRY( 30, 11)   DRY( 30, 12)   DRY( 30, 13)   DRY( 30, 14)   DRY( 30, 15)   
    DRY( 30, 16)   DRY( 30, 17)   DRY( 30, 18)   DRY( 30, 19)   DRY( 30, 20)   
    DRY( 30, 21)   DRY( 30, 22)   DRY( 30, 23)   DRY( 30, 24)   DRY( 30, 25)   
    DRY( 30, 26)   DRY( 30, 27)   DRY( 30, 28)   DRY( 30, 29)   DRY( 30, 30)   
    DRY( 30, 31)   DRY( 30, 32)   DRY( 30, 33)   DRY( 30, 34)   DRY( 30, 35)   
    DRY( 30, 36)   DRY( 30, 37)   DRY( 30, 38)   DRY( 30, 39)   DRY( 30, 40)   
    DRY( 31,  1)   DRY( 31,  2)   DRY( 31,  3)   DRY( 31,  4)   DRY( 31,  5)   
    DRY( 31,  6)   DRY( 31,  7)   DRY( 31,  8)   DRY( 31,  9)   DRY( 31, 10)   
    DRY( 31, 11)   DRY( 31, 12)   DRY( 31, 13)   DRY( 31, 14)   DRY( 31, 15)   
    DRY( 31, 16)   DRY( 31, 17)   DRY( 31, 18)   DRY( 31, 19)   DRY( 31, 20)   
    DRY( 31, 21)   DRY( 31, 22)   DRY( 31, 23)   DRY( 31, 24)   DRY( 31, 25)   
    DRY( 31, 26)   DRY( 31, 27)   DRY( 31, 28)   DRY( 31, 29)   DRY( 31, 30)   
    DRY( 31, 31)   DRY( 31, 32)   DRY( 31, 33)   DRY( 31, 34)   DRY( 31, 35)   
    DRY( 31, 36)   DRY( 31, 37)   DRY( 31, 38)   DRY( 31, 39)   DRY( 31, 40)   
    DRY( 32,  1)   DRY( 32,  2)   DRY( 32,  3)   DRY( 32,  4)   DRY( 32,  5)   
    DRY( 32,  6)   DRY( 32,  7)   DRY( 32,  8)   DRY( 32,  9)   DRY( 32, 10)   
    DRY( 32, 11)   DRY( 32, 12)   DRY( 32, 13)   DRY( 32, 14)   DRY( 32, 15)   
    DRY( 32, 16)   DRY( 32, 17)   DRY( 32, 18)   DRY( 32, 19)   DRY( 32, 20)   
    DRY( 32, 21)   DRY( 32, 22)   DRY( 32, 23)   DRY( 32, 24)   DRY( 32, 25)   
    DRY( 32, 26)   DRY( 32, 27)   DRY( 32, 28)   DRY( 32, 29)   DRY( 32, 30)   
    DRY( 32, 31)   DRY( 32, 32)   DRY( 32, 33)   DRY( 32, 34)   DRY( 32, 35)   
    DRY( 32, 36)   DRY( 32, 37)   DRY( 32, 38)   DRY( 32, 39)   DRY( 32, 40)   
    DRY( 33,  1)   DRY( 33,  2)   DRY( 33,  3)   DRY( 33,  4)   DRY( 33,  5)   
    DRY( 33,  6)   DRY( 33,  7)   DRY( 33,  8)   DRY( 33,  9)   DRY( 33, 10)   
    DRY( 33, 11)   DRY( 33, 12)   DRY( 33, 13)   DRY( 33, 14)   DRY( 33, 15)   
    DRY( 33, 16)   DRY( 33, 17)   DRY( 33, 18)   DRY( 33, 19)   DRY( 33, 20)   
    DRY( 33, 21)   DRY( 33, 22)   DRY( 33, 23)   DRY( 33, 24)   DRY( 33, 25)   
    DRY( 33, 26)   DRY( 33, 27)   DRY( 33, 28)   DRY( 33, 29)   DRY( 33, 30)   
    DRY( 33, 31)   DRY( 33, 32)   DRY( 33, 33)   DRY( 33, 34)   DRY( 33, 35)   
    DRY( 33, 36)   DRY( 33, 37)   DRY( 33, 38)   DRY( 33, 39)   DRY( 33, 40)   
    DRY( 34,  1)   DRY( 34,  2)   DRY( 34,  3)   DRY( 34,  4)   DRY( 34,  5)   
    DRY( 34,  6)   DRY( 34,  7)   DRY( 34,  8)   DRY( 34,  9)   DRY( 34, 10)   
    DRY( 34, 11)   DRY( 34, 12)   DRY( 34, 13)   DRY( 34, 14)   DRY( 34, 15)   
    DRY( 34, 16)   DRY( 34, 17)   DRY( 34, 18)   DRY( 34, 19)   DRY( 34, 20)   
    DRY( 34, 21)   DRY( 34, 22)   DRY( 34, 23)   DRY( 34, 24)   DRY( 34, 25)   
    DRY( 34, 26)   DRY( 34, 27)   DRY( 34, 28)   DRY( 34, 29)   DRY( 34, 30)   
    DRY( 34, 31)   DRY( 34, 32)   DRY( 34, 33)   DRY( 34, 34)   DRY( 34, 35)   
    DRY( 34, 36)   DRY( 34, 37)   DRY( 34, 38)   DRY( 34, 39)   DRY( 34, 40)   
    DRY( 35,  1)   DRY( 35,  2)   DRY( 35,  3)   DRY( 35,  4)   DRY( 35,  5)   
    DRY( 35,  6)   DRY( 35,  7)   DRY( 35,  8)   DRY( 35,  9)   DRY( 35, 10)   
    DRY( 35, 11)   DRY( 35, 12)   DRY( 35, 13)   DRY( 35, 14)   DRY( 35, 15)   
    DRY( 35, 16)   DRY( 35, 17)   DRY( 35, 18)   DRY( 35, 19)   DRY( 35, 20)   
    DRY( 35, 21)   DRY( 35, 22)   DRY( 35, 23)   DRY( 35, 24)   DRY( 35, 25)   
    DRY( 35, 26)   DRY( 35, 27)   DRY( 35, 28)   DRY( 35, 29)   DRY( 35, 30)   
    DRY( 35, 31)   DRY( 35, 32)   DRY( 35, 33)   DRY( 35, 34)   DRY( 35, 35)   
    DRY( 35, 36)   DRY( 35, 37)   DRY( 35, 38)   DRY( 35, 39)   DRY( 35, 40)   
    DRY( 36,  1)   DRY( 36,  2)   DRY( 36,  3)   DRY( 36,  4)   DRY( 36,  5)   
    DRY( 36,  6)   DRY( 36,  7)   DRY( 36,  8)   DRY( 36,  9)   DRY( 36, 10)   
    DRY( 36, 11)   DRY( 36, 12)   DRY( 36, 13)   DRY( 36, 14)   DRY( 36, 15)   
    DRY( 36, 16)   DRY( 36, 17)   DRY( 36, 18)   DRY( 36, 19)   DRY( 36, 20)   
    DRY( 36, 21)   DRY( 36, 22)   DRY( 36, 23)   DRY( 36, 24)   DRY( 36, 25)   
    DRY( 36, 26)   DRY( 36, 27)   DRY( 36, 28)   DRY( 36, 29)   DRY( 36, 30)   
    DRY( 36, 31)   DRY( 36, 32)   DRY( 36, 33)   DRY( 36, 34)   DRY( 36, 35)   
    DRY( 36, 36)   DRY( 36, 37)   DRY( 36, 38)   DRY( 36, 39)   DRY( 36, 40)   
    DRY( 37,  1)   DRY( 37,  2)   DRY( 37,  3)   DRY( 37,  4)   DRY( 37,  5)   
    DRY( 37,  6)   DRY( 37,  7)   DRY( 37,  8)   DRY( 37,  9)   DRY( 37, 10)   
    DRY( 37, 11)   DRY( 37, 12)   DRY( 37, 13)   DRY( 37, 14)   DRY( 37, 15)   
    DRY( 37, 16)   DRY( 37, 17)   DRY( 37, 18)   DRY( 37, 19)   DRY( 37, 20)   
    DRY( 37, 21)   DRY( 37, 22)   DRY( 37, 23)   DRY( 37, 24)   DRY( 37, 25)   
    DRY( 37, 26)   DRY( 37, 27)   DRY( 37, 28)   DRY( 37, 29)   DRY( 37, 30)   
    DRY( 37, 31)   DRY( 37, 32)   DRY( 37, 33)   DRY( 37, 34)   DRY( 37, 35)   
    DRY( 37, 36)   DRY( 37, 37)   DRY( 37, 38)   DRY( 37, 39)   DRY( 37, 40)   
    DRY( 38,  1)   DRY( 38,  2)   DRY( 38,  3)   DRY( 38,  4)   DRY( 38,  5)   
    DRY( 38,  6)   DRY( 38,  7)   DRY( 38,  8)   DRY( 38,  9)   DRY( 38, 10)   
    DRY( 38, 11)   DRY( 38, 12)   DRY( 38, 13)   DRY( 38, 14)   DRY( 38, 15)   
    DRY( 38, 16)   DRY( 38, 17)   DRY( 38, 18)   DRY( 38, 19)   DRY( 38, 20)   
    DRY( 38, 21)   DRY( 38, 22)   DRY( 38, 23)   DRY( 38, 24)   DRY( 38, 25)   
    DRY( 38, 26)   DRY( 38, 27)   DRY( 38, 28)   DRY( 38, 29)   DRY( 38, 30)   
    DRY( 38, 31)   DRY( 38, 32)   DRY( 38, 33)   DRY( 38, 34)   DRY( 38, 35)   
    DRY( 38, 36)   DRY( 38, 37)   DRY( 38, 38)   DRY( 38, 39)   DRY( 38, 40)   
    DRY( 39,  1)   DRY( 39,  2)   DRY( 39,  3)   DRY( 39,  4)   DRY( 39,  5)   
    DRY( 39,  6)   DRY( 39,  7)   DRY( 39,  8)   DRY( 39,  9)   DRY( 39, 10)   
    DRY( 39, 11)   DRY( 39, 12)   DRY( 39, 13)   DRY( 39, 14)   DRY( 39, 15)   
    DRY( 39, 16)   DRY( 39, 17)   DRY( 39, 18)   DRY( 39, 19)   DRY( 39, 20)   
    DRY( 39, 21)   DRY( 39, 22)   DRY( 39, 23)   DRY( 39, 24)   DRY( 39, 25)   
    DRY( 39, 26)   DRY( 39, 27)   DRY( 39, 28)   DRY( 39, 29)   DRY( 39, 30)   
    DRY( 39, 31)   DRY( 39, 32)   DRY( 39, 33)   DRY( 39, 34)   DRY( 39, 35)   
    DRY( 39, 36)   DRY( 39, 37)   DRY( 39, 38)   DRY( 39, 39)   DRY( 39, 40)   
    DRY( 40,  1)   DRY( 40,  2)   DRY( 40,  3)   DRY( 40,  4)   DRY( 40,  5)   
    DRY( 40,  6)   DRY( 40,  7)   DRY( 40,  8)   DRY( 40,  9)   DRY( 40, 10)   
    DRY( 40, 11)   DRY( 40, 12)   DRY( 40, 13)   DRY( 40, 14)   DRY( 40, 15)   
    DRY( 40, 16)   DRY( 40, 17)   DRY( 40, 18)   DRY( 40, 19)   DRY( 40, 20)   
    DRY( 40, 21)   DRY( 40, 22)   DRY( 40, 23)   DRY( 40, 24)   DRY( 40, 25)   
    DRY( 40, 26)   DRY( 40, 27)   DRY( 40, 28)   DRY( 40, 29)   DRY( 40, 30)   
    DRY( 40, 31)   DRY( 40, 32)   DRY( 40, 33)   DRY( 40, 34)   DRY( 40, 35)   
    DRY( 40, 36)   DRY( 40, 37)   DRY( 40, 38)   DRY( 40, 39)   DRY( 40, 40)   

 CELL CONVERSIONS FOR ITER.=  1  LAYER=  4  STEP=  1  PERIOD=   1   (ROW,COL)
    DRY(  1,  1)   DRY(  1,  2)   DRY(  1,  3)   DRY(  1,  4)   DRY(  1,  5)   
    DRY(  1,  6)   DRY(  1,  7)   DRY(  1,  8)   DRY(  1,  9)   DRY(  1, 10)   
    DRY(  1, 11)   DRY(  1, 12)   DRY(  1, 13)   DRY(  1, 14)   DRY(  1, 15)   
    DRY(  1, 16)   DRY(  1, 17)   DRY(  1, 18)   DRY(  1, 19)   DRY(  1, 20)   
    DRY(  1, 21)   DRY(  1, 22)   DRY(  1, 23)   DRY(  1, 24)   DRY(  1, 25)   
    DRY(  1, 26)   DRY(  1, 27)   DRY(  1, 28)   DRY(  1, 29)   DRY(  1, 30)   
    DRY(  1, 31)   DRY(  1, 32)   DRY(  1, 33)   DRY(  1, 34)   DRY(  1, 35)   
    DRY(  1, 36)   DRY(  1, 37)   DRY(  1, 38)   DRY(  1, 39)   DRY(  1, 40)   
    DRY(  2,  1)   DRY(  2,  2)   DRY(  2,  3)   DRY(  2,  4)   DRY(  2,  5)   
    DRY(  2,  6)   DRY(  2,  7)   DRY(  2,  8)   DRY(  2,  9)   DRY(  2, 10)   
    DRY(  2, 11)   DRY(  2, 12)   DRY(  2, 13)   DRY(  2, 14)   DRY(  2, 15)   
    DRY(  2, 16)   DRY(  2, 17)   DRY(  2, 18)   DRY(  2, 19)   DRY(  2, 20)   
    DRY(  2, 21)   DRY(  2, 22)   DRY(  2, 23)   DRY(  2, 24)   DRY(  2, 25)   
    DRY(  2, 26)   DRY(  2, 27)   DRY(  2, 28)   DRY(  2, 29)   DRY(  2, 30)   
    DRY(  2, 31)   DRY(  2, 32)   DRY(  2, 33)   DRY(  2, 34)   DRY(  2, 35)   
    DRY(  2, 36)   DRY(  2, 37)   DRY(  2, 38)   DRY(  2, 39)   DRY(  2, 40)   
    DRY(  3,  1)   DRY(  3,  2)   DRY(  3,  3)   DRY(  3,  4)   DRY(  3,  5)   
    DRY(  3,  6)   DRY(  3,  7)   DRY(  3,  8)   DRY(  3,  9)   DRY(  3, 10)   
    DRY(  3, 11)   DRY(  3, 12)   DRY(  3, 13)   DRY(  3, 14)   DRY(  3, 15)   
    DRY(  3, 16)   DRY(  3, 17)   DRY(  3, 18)   DRY(  3, 19)   DRY(  3, 20)   
    DRY(  3, 21)   DRY(  3, 22)   DRY(  3, 23)   DRY(  3, 24)   DRY(  3, 25)   
    DRY(  3, 26)   DRY(  3, 27)   DRY(  3, 28)   DRY(  3, 29)   DRY(  3, 30)   
    DRY(  3, 31)   DRY(  3, 32)   DRY(  3, 33)   DRY(  3, 34)   DRY(  3, 35)   
    DRY(  3, 36)   DRY(  3, 37)   DRY(  3, 38)   DRY(  3, 39)   DRY(  3, 40)   
    DRY(  4,  1)   DRY(  4,  2)   DRY(  4,  3)   DRY(  4,  4)   DRY(  4,  5)   
    DRY(  4,  6)   DRY(  4,  7)   DRY(  4,  8)   DRY(  4,  9)   DRY(  4, 10)   
    DRY(  4, 11)   DRY(  4, 12)   DRY(  4, 13)   DRY(  4, 14)   DRY(  4, 15)   
    DRY(  4, 16)   DRY(  4, 17)   DRY(  4, 18)   DRY(  4, 19)   DRY(  4, 20)   
    DRY(  4, 21)   DRY(  4, 22)   DRY(  4, 23)   DRY(  4, 24)   DRY(  4, 25)   
    DRY(  4, 26)   DRY(  4, 27)   DRY(  4, 28)   DRY(  4, 29)   DRY(  4, 30)   
    DRY(  4, 31)   DRY(  4, 32)   DRY(  4, 33)   DRY(  4, 34)   DRY(  4, 35)   
    DRY(  4, 36)   DRY(  4, 37)   DRY(  4, 38)   DRY(  4, 39)   DRY(  4, 40)   
    DRY(  5,  1)   DRY(  5,  2)   DRY(  5,  3)   DRY(  5,  4)   DRY(  5,  5)   
    DRY(  5,  6)   DRY(  5,  7)   DRY(  5,  8)   DRY(  5,  9)   DRY(  5, 10)   
    DRY(  5, 11)   DRY(  5, 12)   DRY(  5, 13)   DRY(  5, 14)   DRY(  5, 15)   
    DRY(  5, 16)   DRY(  5, 17)   DRY(  5, 18)   DRY(  5, 19)   DRY(  5, 20)   
    DRY(  5, 21)   DRY(  5, 22)   DRY(  5, 23)   DRY(  5, 24)   DRY(  5, 25)   
    DRY(  5, 26)   DRY(  5, 27)   DRY(  5, 28)   DRY(  5, 29)   DRY(  5, 30)   
    DRY(  5, 31)   DRY(  5, 32)   DRY(  5, 33)   DRY(  5, 34)   DRY(  5, 35)   
    DRY(  5, 36)   DRY(  5, 37)   DRY(  5, 38)   DRY(  5, 39)   DRY(  5, 40)   
    DRY(  6,  1)   DRY(  6,  2)   DRY(  6,  3)   DRY(  6,  4)   DRY(  6,  5)   
    DRY(  6,  6)   DRY(  6,  7)   DRY(  6,  8)   DRY(  6,  9)   DRY(  6, 10)   
    DRY(  6, 11)   DRY(  6, 12)   DRY(  6, 13)   DRY(  6, 14)   DRY(  6, 15)   
    DRY(  6, 16)   DRY(  6, 17)   DRY(  6, 18)   DRY(  6, 19)   DRY(  6, 20)   
    DRY(  6, 21)   DRY(  6, 22)   DRY(  6, 23)   DRY(  6, 24)   DRY(  6, 25)   
    DRY(  6, 26)   DRY(  6, 27)   DRY(  6, 28)   DRY(  6, 29)   DRY(  6, 30)   
    DRY(  6, 31)   DRY(  6, 32)   DRY(  6, 33)   DRY(  6, 34)   DRY(  6, 35)   
    DRY(  6, 36)   DRY(  6, 37)   DRY(  6, 38)   DRY(  6, 39)   DRY(  6, 40)   
    DRY(  7,  1)   DRY(  7,  2)   DRY(  7,  3)   DRY(  7,  4)   DRY(  7,  5)   
    DRY(  7,  6)   DRY(  7,  7)   DRY(  7,  8)   DRY(  7,  9)   DRY(  7, 10)   
    DRY(  7, 11)   DRY(  7, 12)   DRY(  7, 13)   DRY(  7, 14)   DRY(  7, 15)   
    DRY(  7, 16)   DRY(  7, 17)   DRY(  7, 18)   DRY(  7, 19)   DRY(  7, 20)   
    DRY(  7, 21)   DRY(  7, 22)   DRY(  7, 23)   DRY(  7, 24)   DRY(  7, 25)   
    DRY(  7, 26)   DRY(  7, 27)   DRY(  7, 28)   DRY(  7, 29)   DRY(  7, 30)   
    DRY(  7, 31)   DRY(  7, 32)   DRY(  7, 33)   DRY(  7, 34)   DRY(  7, 35)   
    DRY(  7, 36)   DRY(  7, 37)   DRY(  7, 38)   DRY(  7, 39)   DRY(  7, 40)   
    DRY(  8,  1)   DRY(  8,  2)   DRY(  8,  3)   DRY(  8,  4)   DRY(  8,  5)   
    DRY(  8,  6)   DRY(  8,  7)   DRY(  8,  8)   DRY(  8,  9)   DRY(  8, 10)   
    DRY(  8, 11)   DRY(  8, 12)   DRY(  8, 13)   DRY(  8, 14)   DRY(  8, 15)   
    DRY(  8, 16)   DRY(  8, 17)   DRY(  8, 18)   DRY(  8, 19)   DRY(  8, 20)   
    DRY(  8, 21)   DRY(  8, 22)   DRY(  8, 23)   DRY(  8, 24)   DRY(  8, 25)   
    DRY(  8, 26)   DRY(  8, 27)   DRY(  8, 28)   DRY(  8, 29)   DRY(  8, 30)   
    DRY(  8, 31)   DRY(  8, 32)   DRY(  8, 33)   DRY(  8, 34)   DRY(  8, 35)   
    DRY(  8, 36)   DRY(  8, 37)   DRY(  8, 38)   DRY(  8, 39)   DRY(  8, 40)   
    DRY(  9,  1)   DRY(  9,  2)   DRY(  9,  3)   DRY(  9,  4)   DRY(  9,  5)   
    DRY(  9,  6)   DRY(  9,  7)   DRY(  9,  8)   DRY(  9,  9)   DRY(  9, 10)   
    DRY(  9, 11)   DRY(  9, 12)   DRY(  9, 13)   DRY(  9, 14)   DRY(  9, 15)   
    DRY(  9, 16)   DRY(  9, 17)   DRY(  9, 18)   DRY(  9, 19)   DRY(  9, 20)   
    DRY(  9, 21)   DRY(  9, 22)   DRY(  9, 23)   DRY(  9, 24)   DRY(  9, 25)   
    DRY(  9, 26)   DRY(  9, 27)   DRY(  9, 28)   DRY(  9, 29)   DRY(  9, 30)   
    DRY(  9, 31)   DRY(  9, 32)   DRY(  9, 33)   DRY(  9, 34)   DRY(  9, 35)   
    DRY(  9, 36)   DRY(  9, 37)   DRY(  9, 38)   DRY(  9, 39)   DRY(  9, 40)   
    DRY( 10,  1)   DRY( 10,  2)   DRY( 10,  3)   DRY( 10,  4)   DRY( 10,  5)   
    DRY( 10,  6)   DRY( 10,  7)   DRY( 10,  8)   DRY( 10,  9)   DRY( 10, 10)   
    DRY( 10, 11)   DRY( 10, 12)   DRY( 10, 13)   DRY( 10, 14)   DRY( 10, 15)   
    DRY( 10, 16)   DRY( 10, 17)   DRY( 10, 18)   DRY( 10, 19)   DRY( 10, 20)   
    DRY( 10, 21)   DRY( 10, 22)   DRY( 10, 23)   DRY( 10, 24)   DRY( 10, 25)   
    DRY( 10, 26)   DRY( 10, 27)   DRY( 10, 28)   DRY( 10, 29)   DRY( 10, 30)   
    DRY( 10, 31)   DRY( 10, 32)   DRY( 10, 33)   DRY( 10, 34)   DRY( 10, 35)   
    DRY( 10, 36)   DRY( 10, 37)   DRY( 10, 38)   DRY( 10, 39)   DRY( 10, 40)   
    DRY( 11,  1)   DRY( 11,  2)   DRY( 11,  3)   DRY( 11,  4)   DRY( 11,  5)   
    DRY( 11,  6)   DRY( 11,  7)   DRY( 11,  8)   DRY( 11,  9)   DRY( 11, 10)   
    DRY( 11, 11)   DRY( 11, 12)   DRY( 11, 13)   DRY( 11, 14)   DRY( 11, 15)   
    DRY( 11, 16)   DRY( 11, 17)   DRY( 11, 18)   DRY( 11, 19)   DRY( 11, 20)   
    DRY( 11, 21)   DRY( 11, 22)   DRY( 11, 23)   DRY( 11, 24)   DRY( 11, 25)   
    DRY( 11, 26)   DRY( 11, 27)   DRY( 11, 28)   DRY( 11, 29)   DRY( 11, 30)   
    DRY( 11, 31)   DRY( 11, 32)   DRY( 11, 33)   DRY( 11, 34)   DRY( 11, 35)   
    DRY( 11, 36)   DRY( 11, 37)   DRY( 11, 38)   DRY( 11, 39)   DRY( 11, 40)   
    DRY( 12,  1)   DRY( 12,  2)   DRY( 12,  3)   DRY( 12,  4)   DRY( 12,  5)   
    DRY( 12,  6)   DRY( 12,  7)   DRY( 12,  8)   DRY( 12,  9)   DRY( 12, 10)   
    DRY( 12, 11)   DRY( 12, 12)   DRY( 12, 13)   DRY( 12, 14)   DRY( 12, 15)   
    DRY( 12, 16)   DRY( 12, 17)   DRY( 12, 18)   DRY( 12, 19)   DRY( 12, 20)   
    DRY( 12, 21)   DRY( 12, 22)   DRY( 12, 23)   DRY( 12, 24)   DRY( 12, 25)   
    DRY( 12, 26)   DRY( 12, 27)   DRY( 12, 28)   DRY( 12, 29)   DRY( 12, 30)   
    DRY( 12, 31)   DRY( 12, 32)   DRY( 12, 33)   DRY( 12, 34)   DRY( 12, 35)   
    DRY( 12, 36)   DRY( 12, 37)   DRY( 12, 38)   DRY( 12, 39)   DRY( 12, 40)   
    DRY( 13,  1)   DRY( 13,  2)   DRY( 13,  3)   DRY( 13,  4)   DRY( 13,  5)   
    DRY( 13,  6)   DRY( 13,  7)   DRY( 13,  8)   DRY( 13,  9)   DRY( 13, 10)   
    DRY( 13, 11)   DRY( 13, 12)   DRY( 13, 13)   DRY( 13, 14)   DRY( 13, 15)   
    DRY( 13, 16)   DRY( 13, 17)   DRY( 13, 18)   DRY( 13, 19)   DRY( 13, 20)   
    DRY( 13, 21)   DRY( 13, 22)   DRY( 13, 23)   DRY( 13, 24)   DRY( 13, 25)   
    DRY( 13, 26)   DRY( 13, 27)   DRY( 13, 28)   DRY( 13, 29)   DRY( 13, 30)   
    DRY( 13, 31)   DRY( 13, 32)   DRY( 13, 33)   DRY( 13, 34)   DRY( 13, 35)   
    DRY( 13, 36)   DRY( 13, 37)   DRY( 13, 38)   DRY( 13, 39)   DRY( 13, 40)   
    DRY( 14,  1)   DRY( 14,  2)   DRY( 14,  3)   DRY( 14,  4)   DRY( 14,  5)   
    DRY( 14,  6)   DRY( 14,  7)   DRY( 14,  8)   DRY( 14,  9)   DRY( 14, 10)   
    DRY( 14, 11)   DRY( 14, 12)   DRY( 14, 13)   DRY( 14, 14)   DRY( 14, 15)   
    DRY( 14, 16)   DRY( 14, 17)   DRY( 14, 18)   DRY( 14, 19)   DRY( 14, 20)   
    DRY( 14, 21)   DRY( 14, 22)   DRY( 14, 23)   DRY( 14, 24)   DRY( 14, 25)   
    DRY( 14, 26)   DRY( 14, 27)   DRY( 14, 28)   DRY( 14, 29)   DRY( 14, 30)   
    DRY( 14, 31)   DRY( 14, 32)   DRY( 14, 33)   DRY( 14, 34)   DRY( 14, 35)   
    DRY( 14, 36)   DRY( 14, 37)   DRY( 14, 38)   DRY( 14, 39)   DRY( 14, 40)   
    DRY( 15,  1)   DRY( 15,  2)   DRY( 15,  3)   DRY( 15,  4)   DRY( 15,  5)   
    DRY( 15,  6)   DRY( 15,  7)   DRY( 15,  8)   DRY( 15,  9)   DRY( 15, 10)   
    DRY( 15, 11)   DRY( 15, 12)   DRY( 15, 13)   DRY( 15, 14)   DRY( 15, 15)   
    DRY( 15, 16)   DRY( 15, 17)   DRY( 15, 18)   DRY( 15, 19)   DRY( 15, 20)   
    DRY( 15, 21)   DRY( 15, 22)   DRY( 15, 23)   DRY( 15, 24)   DRY( 15, 25)   
    DRY( 15, 26)   DRY( 15, 27)   DRY( 15, 28)   DRY( 15, 29)   DRY( 15, 30)   
    DRY( 15, 31)   DRY( 15, 32)   DRY( 15, 33)   DRY( 15, 34)   DRY( 15, 35)   
    DRY( 15, 36)   DRY( 15, 37)   DRY( 15, 38)   DRY( 15, 39)   DRY( 15, 40)   
    DRY( 16,  1)   DRY( 16,  2)   DRY( 16,  3)   DRY( 16,  4)   DRY( 16,  5)   
    DRY( 16,  6)   DRY( 16,  7)   DRY( 16,  8)   DRY( 16,  9)   DRY( 16, 10)   
    DRY( 16, 11)   DRY( 16, 12)   DRY( 16, 13)   DRY( 16, 14)   DRY( 16, 15)   
    DRY( 16, 16)   DRY( 16, 17)   DRY( 16, 18)   DRY( 16, 19)   DRY( 16, 20)   
    DRY( 16, 21)   DRY( 16, 22)   DRY( 16, 23)   DRY( 16, 24)   DRY( 16, 25)   
    DRY( 16, 26)   DRY( 16, 27)   DRY( 16, 28)   DRY( 16, 29)   DRY( 16, 30)   
    DRY( 16, 31)   DRY( 16, 32)   DRY( 16, 33)   DRY( 16, 34)   DRY( 16, 35)   
    DRY( 16, 36)   DRY( 16, 37)   DRY( 16, 38)   DRY( 16, 39)   DRY( 16, 40)   
    DRY( 17,  1)   DRY( 17,  2)   DRY( 17,  3)   DRY( 17,  4)   DRY( 17,  5)   
    DRY( 17,  6)   DRY( 17,  7)   DRY( 17,  8)   DRY( 17,  9)   DRY( 17, 10)   
    DRY( 17, 11)   DRY( 17, 12)   DRY( 17, 13)   DRY( 17, 14)   DRY( 17, 15)   
    DRY( 17, 16)   DRY( 17, 17)   DRY( 17, 18)   DRY( 17, 19)   DRY( 17, 20)   
    DRY( 17, 21)   DRY( 17, 22)   DRY( 17, 23)   DRY( 17, 24)   DRY( 17, 25)   
    DRY( 17, 26)   DRY( 17, 27)   DRY( 17, 28)   DRY( 17, 29)   DRY( 17, 30)   
    DRY( 17, 31)   DRY( 17, 32)   DRY( 17, 33)   DRY( 17, 34)   DRY( 17, 35)   
    DRY( 17, 36)   DRY( 17, 37)   DRY( 17, 38)   DRY( 17, 39)   DRY( 17, 40)   
    DRY( 18,  1)   DRY( 18,  2)   DRY( 18,  3)   DRY( 18,  4)   DRY( 18,  5)   
    DRY( 18,  6)   DRY( 18,  7)   DRY( 18,  8)   DRY( 18,  9)   DRY( 18, 10)   
    DRY( 18, 11)   DRY( 18, 12)   DRY( 18, 13)   DRY( 18, 14)   DRY( 18, 15)   
    DRY( 18, 16)   DRY( 18, 17)   DRY( 18, 18)   DRY( 18, 19)   DRY( 18, 20)   
    DRY( 18, 21)   DRY( 18, 22)   DRY( 18, 23)   DRY( 18, 24)   DRY( 18, 25)   
    DRY( 18, 26)   DRY( 18, 27)   DRY( 18, 28)   DRY( 18, 29)   DRY( 18, 30)   
    DRY( 18, 31)   DRY( 18, 32)   DRY( 18, 33)   DRY( 18, 34)   DRY( 18, 35)   
    DRY( 18, 36)   DRY( 18, 37)   DRY( 18, 38)   DRY( 18, 39)   DRY( 18, 40)   
    DRY( 19,  1)   DRY( 19,  2)   DRY( 19,  3)   DRY( 19,  4)   DRY( 19,  5)   
    DRY( 19,  6)   DRY( 19,  7)   DRY( 19,  8)   DRY( 19,  9)   DRY( 19, 10)   
    DRY( 19, 11)   DRY( 19, 12)   DRY( 19, 13)   DRY( 19, 14)   DRY( 19, 15)   
    DRY( 19, 16)   DRY( 19, 17)   DRY( 19, 18)   DRY( 19, 19)   DRY( 19, 20)   
    DRY( 19, 21)   DRY( 19, 22)   DRY( 19, 23)   DRY( 19, 24)   DRY( 19, 25)   
    DRY( 19, 26)   DRY( 19, 27)   DRY( 19, 28)   DRY( 19, 29)   DRY( 19, 30)   
    DRY( 19, 31)   DRY( 19, 32)   DRY( 19, 33)   DRY( 19, 34)   DRY( 19, 35)   
    DRY( 19, 36)   DRY( 19, 37)   DRY( 19, 38)   DRY( 19, 39)   DRY( 19, 40)   
    DRY( 20,  1)   DRY( 20,  2)   DRY( 20,  3)   DRY( 20,  4)   DRY( 20,  5)   
    DRY( 20,  6)   DRY( 20,  7)   DRY( 20,  8)   DRY( 20,  9)   DRY( 20, 10)   
    DRY( 20, 11)   DRY( 20, 12)   DRY( 20, 13)   DRY( 20, 14)   DRY( 20, 15)   
    DRY( 20, 16)   DRY( 20, 17)   DRY( 20, 18)   DRY( 20, 19)   DRY( 20, 20)   
    DRY( 20, 21)   DRY( 20, 22)   DRY( 20, 23)   DRY( 20, 24)   DRY( 20, 25)   
    DRY( 20, 26)   DRY( 20, 27)   DRY( 20, 28)   DRY( 20, 29)   DRY( 20, 30)   
    DRY( 20, 31)   DRY( 20, 32)   DRY( 20, 33)   DRY( 20, 34)   DRY( 20, 35)   
    DRY( 20, 36)   DRY( 20, 37)   DRY( 20, 38)   DRY( 20, 39)   DRY( 20, 40)   
    DRY( 21,  1)   DRY( 21,  2)   DRY( 21,  3)   DRY( 21,  4)   DRY( 21,  5)   
    DRY( 21,  6)   DRY( 21,  7)   DRY( 21,  8)   DRY( 21,  9)   DRY( 21, 10)   
    DRY( 21, 11)   DRY( 21, 12)   DRY( 21, 13)   DRY( 21, 14)   DRY( 21, 15)   
    DRY( 21, 16)   DRY( 21, 17)   DRY( 21, 18)   DRY( 21, 19)   DRY( 21, 20)   
    DRY( 21, 21)   DRY( 21, 22)   DRY( 21, 23)   DRY( 21, 24)   DRY( 21, 25)   
    DRY( 21, 26)   DRY( 21, 27)   DRY( 21, 28)   DRY( 21, 29)   DRY( 21, 30)   
    DRY( 21, 31)   DRY( 21, 32)   DRY( 21, 33)   DRY( 21, 34)   DRY( 21, 35)   
    DRY( 21, 36)   DRY( 21, 37)   DRY( 21, 38)   DRY( 21, 39)   DRY( 21, 40)   
    DRY( 22,  1)   DRY( 22,  2)   DRY( 22,  3)   DRY( 22,  4)   DRY( 22,  5)   
    DRY( 22,  6)   DRY( 22,  7)   DRY( 22,  8)   DRY( 22,  9)   DRY( 22, 10)   
    DRY( 22, 11)   DRY( 22, 12)   DRY( 22, 13)   DRY( 22, 14)   DRY( 22, 15)   
    DRY( 22, 16)   DRY( 22, 17)   DRY( 22, 18)   DRY( 22, 19)   DRY( 22, 20)   
    DRY( 22, 21)   DRY( 22, 22)   DRY( 22, 23)   DRY( 22, 24)   DRY( 22, 25)   
    DRY( 22, 26)   DRY( 22, 27)   DRY( 22, 28)   DRY( 22, 29)   DRY( 22, 30)   
    DRY( 22, 31)   DRY( 22, 32)   DRY( 22, 33)   DRY( 22, 34)   DRY( 22, 35)   
    DRY( 22, 36)   DRY( 22, 37)   DRY( 22, 38)   DRY( 22, 39)   DRY( 22, 40)   
    DRY( 23,  1)   DRY( 23,  2)   DRY( 23,  3)   DRY( 23,  4)   DRY( 23,  5)   
    DRY( 23,  6)   DRY( 23,  7)   DRY( 23,  8)   DRY( 23,  9)   DRY( 23, 10)   
    DRY( 23, 11)   DRY( 23, 12)   DRY( 23, 13)   DRY( 23, 14)   DRY( 23, 15)   
    DRY( 23, 16)   DRY( 23, 17)   DRY( 23, 18)   DRY( 23, 19)   DRY( 23, 20)   
    DRY( 23, 21)   DRY( 23, 22)   DRY( 23, 23)   DRY( 23, 24)   DRY( 23, 25)   
    DRY( 23, 26)   DRY( 23, 27)   DRY( 23, 28)   DRY( 23, 29)   DRY( 23, 30)   
    DRY( 23, 31)   DRY( 23, 32)   DRY( 23, 33)   DRY( 23, 34)   DRY( 23, 35)   
    DRY( 23, 36)   DRY( 23, 37)   DRY( 23, 38)   DRY( 23, 39)   DRY( 23, 40)   
    DRY( 24,  1)   DRY( 24,  2)   DRY( 24,  3)   DRY( 24,  4)   DRY( 24,  5)   
    DRY( 24,  6)   DRY( 24,  7)   DRY( 24,  8)   DRY( 24,  9)   DRY( 24, 10)   
    DRY( 24, 11)   DRY( 24, 12)   DRY( 24, 13)   DRY( 24, 14)   DRY( 24, 15)   
    DRY( 24, 16)   DRY( 24, 17)   DRY( 24, 18)   DRY( 24, 19)   DRY( 24, 20)   
    DRY( 24, 21)   DRY( 24, 22)   DRY( 24, 23)   DRY( 24, 24)   DRY( 24, 25)   
    DRY( 24, 26)   DRY( 24, 27)   DRY( 24, 28)   DRY( 24, 29)   DRY( 24, 30)   
    DRY( 24, 31)   DRY( 24, 32)   DRY( 24, 33)   DRY( 24, 34)   DRY( 24, 35)   
    DRY( 24, 36)   DRY( 24, 37)   DRY( 24, 38)   DRY( 24, 39)   DRY( 24, 40)   
    DRY( 25,  1)   DRY( 25,  2)   DRY( 25,  3)   DRY( 25,  4)   DRY( 25,  5)   
    DRY( 25,  6)   DRY( 25,  7)   DRY( 25,  8)   DRY( 25,  9)   DRY( 25, 10)   
    DRY( 25, 11)   DRY( 25, 12)   DRY( 25, 13)   DRY( 25, 14)   DRY( 25, 15)   
    DRY( 25, 16)   DRY( 25, 17)   DRY( 25, 18)   DRY( 25, 19)   DRY( 25, 20)   
    DRY( 25, 21)   DRY( 25, 22)   DRY( 25, 23)   DRY( 25, 24)   DRY( 25, 25)   
    DRY( 25, 26)   DRY( 25, 27)   DRY( 25, 28)   DRY( 25, 29)   DRY( 25, 30)   
    DRY( 25, 31)   DRY( 25, 32)   DRY( 25, 33)   DRY( 25, 34)   DRY( 25, 35)   
    DRY( 25, 36)   DRY( 25, 37)   DRY( 25, 38)   DRY( 25, 39)   DRY( 25, 40)   
    DRY( 26,  1)   DRY( 26,  2)   DRY( 26,  3)   DRY( 26,  4)   DRY( 26,  5)   
    DRY( 26,  6)   DRY( 26,  7)   DRY( 26,  8)   DRY( 26,  9)   DRY( 26, 10)   
    DRY( 26, 11)   DRY( 26, 12)   DRY( 26, 13)   DRY( 26, 14)   DRY( 26, 15)   
    DRY( 26, 16)   DRY( 26, 17)   DRY( 26, 18)   DRY( 26, 19)   DRY( 26, 20)   
    DRY( 26, 21)   DRY( 26, 22)   DRY( 26, 23)   DRY( 26, 24)   DRY( 26, 25)   
    DRY( 26, 26)   DRY( 26, 27)   DRY( 26, 28)   DRY( 26, 29)   DRY( 26, 30)   
    DRY( 26, 31)   DRY( 26, 32)   DRY( 26, 33)   DRY( 26, 34)   DRY( 26, 35)   
    DRY( 26, 36)   DRY( 26, 37)   DRY( 26, 38)   DRY( 26, 39)   DRY( 26, 40)   
    DRY( 27,  1)   DRY( 27,  2)   DRY( 27,  3)   DRY( 27,  4)   DRY( 27,  5)   
    DRY( 27,  6)   DRY( 27,  7)   DRY( 27,  8)   DRY( 27,  9)   DRY( 27, 10)   
    DRY( 27, 11)   DRY( 27, 12)   DRY( 27, 13)   DRY( 27, 14)   DRY( 27, 15)   
    DRY( 27, 16)   DRY( 27, 17)   DRY( 27, 18)   DRY( 27, 19)   DRY( 27, 20)   
    DRY( 27, 21)   DRY( 27, 22)   DRY( 27, 23)   DRY( 27, 24)   DRY( 27, 25)   
    DRY( 27, 26)   DRY( 27, 27)   DRY( 27, 28)   DRY( 27, 29)   DRY( 27, 30)   
    DRY( 27, 31)   DRY( 27, 32)   DRY( 27, 33)   DRY( 27, 34)   DRY( 27, 35)   
    DRY( 27, 36)   DRY( 27, 37)   DRY( 27, 38)   DRY( 27, 39)   DRY( 27, 40)   
    DRY( 28,  1)   DRY( 28,  2)   DRY( 28,  3)   DRY( 28,  4)   DRY( 28,  5)   
    DRY( 28,  6)   DRY( 28,  7)   DRY( 28,  8)   DRY( 28,  9)   DRY( 28, 10)   
    DRY( 28, 11)   DRY( 28, 12)   DRY( 28, 13)   DRY( 28, 14)   DRY( 28, 15)   
    DRY( 28, 16)   DRY( 28, 17)   DRY( 28, 18)   DRY( 28, 19)   DRY( 28, 20)   
    DRY( 28, 21)   DRY( 28, 22)   DRY( 28, 23)   DRY( 28, 24)   DRY( 28, 25)   
    DRY( 28, 26)   DRY( 28, 27)   DRY( 28, 28)   DRY( 28, 29)   DRY( 28, 30)   
    DRY( 28, 31)   DRY( 28, 32)   DRY( 28, 33)   DRY( 28, 34)   DRY( 28, 35)   
    DRY( 28, 36)   DRY( 28, 37)   DRY( 28, 38)   DRY( 28, 39)   DRY( 28, 40)   
    DRY( 29,  1)   DRY( 29,  2)   DRY( 29,  3)   DRY( 29,  4)   DRY( 29,  5)   
    DRY( 29,  6)   DRY( 29,  7)   DRY( 29,  8)   DRY( 29,  9)   DRY( 29, 10)   
    DRY( 29, 11)   DRY( 29, 12)   DRY( 29, 13)   DRY( 29, 14)   DRY( 29, 15)   
    DRY( 29, 16)   DRY( 29, 17)   DRY( 29, 18)   DRY( 29, 19)   DRY( 29, 20)   
    DRY( 29, 21)   DRY( 29, 22)   DRY( 29, 23)   DRY( 29, 24)   DRY( 29, 25)   
    DRY( 29, 26)   DRY( 29, 27)   DRY( 29, 28)   DRY( 29, 29)   DRY( 29, 30)   
    DRY( 29, 31)   DRY( 29, 32)   DRY( 29, 33)   DRY( 29, 34)   DRY( 29, 35)   
    DRY( 29, 36)   DRY( 29, 37)   DRY( 29, 38)   DRY( 29, 39)   DRY( 29, 40)   
    DRY( 30,  1)   DRY( 30,  2)   DRY( 30,  3)   DRY( 30,  4)   DRY( 30,  5)   
    DRY( 30,  6)   DRY( 30,  7)   DRY( 30,  8)   DRY( 30,  9)   DRY( 30, 10)   
    DRY( 30, 11)   DRY( 30, 12)   DRY( 30, 13)   DRY( 30, 14)   DRY( 30, 15)   
    DRY( 30, 16)   DRY( 30, 17)   DRY( 30, 18)   DRY( 30, 19)   DRY( 30, 20)   
    DRY( 30, 21)   DRY( 30, 22)   DRY( 30, 23)   DRY( 30, 24)   DRY( 30, 25)   
    DRY( 30, 26)   DRY( 30, 27)   DRY( 30, 28)   DRY( 30, 29)   DRY( 30, 30)   
    DRY( 30, 31)   DRY( 30, 32)   DRY( 30, 33)   DRY( 30, 34)   DRY( 30, 35)   
    DRY( 30, 36)   DRY( 30, 37)   DRY( 30, 38)   DRY( 30, 39)   DRY( 30, 40)   
    DRY( 31,  1)   DRY( 31,  2)   DRY( 31,  3)   DRY( 31,  4)   DRY( 31,  5)   
    DRY( 31,  6)   DRY( 31,  7)   DRY( 31,  8)   DRY( 31,  9)   DRY( 31, 10)   
    DRY( 31, 11)   DRY( 31, 12)   DRY( 31, 13)   DRY( 31, 14)   DRY( 31, 15)   
    DRY( 31, 16)   DRY( 31, 17)   DRY( 31, 18)   DRY( 31, 19)   DRY( 31, 20)   
    DRY( 31, 21)   DRY( 31, 22)   DRY( 31, 23)   DRY( 31, 24)   DRY( 31, 25)   
    DRY( 31, 26)   DRY( 31, 27)   DRY( 31, 28)   DRY( 31, 29)   DRY( 31, 30)   
    DRY( 31, 31)   DRY( 31, 32)   DRY( 31, 33)   DRY( 31, 34)   DRY( 31, 35)   
    DRY( 31, 36)   DRY( 31, 37)   DRY( 31, 38)   DRY( 31, 39)   DRY( 31, 40)   
    DRY( 32,  1)   DRY( 32,  2)   DRY( 32,  3)   DRY( 32,  4)   DRY( 32,  5)   
    DRY( 32,  6)   DRY( 32,  7)   DRY( 32,  8)   DRY( 32,  9)   DRY( 32, 10)   
    DRY( 32, 11)   DRY( 32, 12)   DRY( 32, 13)   DRY( 32, 14)   DRY( 32, 15)   
    DRY( 32, 16)   DRY( 32, 17)   DRY( 32, 18)   DRY( 32, 19)   DRY( 32, 20)   
    DRY( 32, 21)   DRY( 32, 22)   DRY( 32, 23)   DRY( 32, 24)   DRY( 32, 25)   
    DRY( 32, 26)   DRY( 32, 27)   DRY( 32, 28)   DRY( 32, 29)   DRY( 32, 30)   
    DRY( 32, 31)   DRY( 32, 32)   DRY( 32, 33)   DRY( 32, 34)   DRY( 32, 35)   
    DRY( 32, 36)   DRY( 32, 37)   DRY( 32, 38)   DRY( 32, 39)   DRY( 32, 40)   
    DRY( 33,  1)   DRY( 33,  2)   DRY( 33,  3)   DRY( 33,  4)   DRY( 33,  5)   
    DRY( 33,  6)   DRY( 33,  7)   DRY( 33,  8)   DRY( 33,  9)   DRY( 33, 10)   
    DRY( 33, 11)   DRY( 33, 12)   DRY( 33, 13)   DRY( 33, 14)   DRY( 33, 15)   
    DRY( 33, 16)   DRY( 33, 17)   DRY( 33, 18)   DRY( 33, 19)   DRY( 33, 20)   
    DRY( 33, 21)   DRY( 33, 22)   DRY( 33, 23)   DRY( 33, 24)   DRY( 33, 25)   
    DRY( 33, 26)   DRY( 33, 27)   DRY( 33, 28)   DRY( 33, 29)   DRY( 33, 30)   
    DRY( 33, 31)   DRY( 33, 32)   DRY( 33, 33)   DRY( 33, 34)   DRY( 33, 35)   
    DRY( 33, 36)   DRY( 33, 37)   DRY( 33, 38)   DRY( 33, 39)   DRY( 33, 40)   
    DRY( 34,  1)   DRY( 34,  2)   DRY( 34,  3)   DRY( 34,  4)   DRY( 34,  5)   
    DRY( 34,  6)   DRY( 34,  7)   DRY( 34,  8)   DRY( 34,  9)   DRY( 34, 10)   
    DRY( 34, 11)   DRY( 34, 12)   DRY( 34, 13)   DRY( 34, 14)   DRY( 34, 15)   
    DRY( 34, 16)   DRY( 34, 17)   DRY( 34, 18)   DRY( 34, 19)   DRY( 34, 20)   
    DRY( 34, 21)   DRY( 34, 22)   DRY( 34, 23)   DRY( 34, 24)   DRY( 34, 25)   
    DRY( 34, 26)   DRY( 34, 27)   DRY( 34, 28)   DRY( 34, 29)   DRY( 34, 30)   
    DRY( 34, 31)   DRY( 34, 32)   DRY( 34, 33)   DRY( 34, 34)   DRY( 34, 35)   
    DRY( 34, 36)   DRY( 34, 37)   DRY( 34, 38)   DRY( 34, 39)   DRY( 34, 40)   
    DRY( 35,  1)   DRY( 35,  2)   DRY( 35,  3)   DRY( 35,  4)   DRY( 35,  5)   
    DRY( 35,  6)   DRY( 35,  7)   DRY( 35,  8)   DRY( 35,  9)   DRY( 35, 10)   
    DRY( 35, 11)   DRY( 35, 12)   DRY( 35, 13)   DRY( 35, 14)   DRY( 35, 15)   
    DRY( 35, 16)   DRY( 35, 17)   DRY( 35, 18)   DRY( 35, 19)   DRY( 35, 20)   
    DRY( 35, 21)   DRY( 35, 22)   DRY( 35, 23)   DRY( 35, 24)   DRY( 35, 25)   
    DRY( 35, 26)   DRY( 35, 27)   DRY( 35, 28)   DRY( 35, 29)   DRY( 35, 30)   
    DRY( 35, 31)   DRY( 35, 32)   DRY( 35, 33)   DRY( 35, 34)   DRY( 35, 35)   
    DRY( 35, 36)   DRY( 35, 37)   DRY( 35, 38)   DRY( 35, 39)   DRY( 35, 40)   
    DRY( 36,  1)   DRY( 36,  2)   DRY( 36,  3)   DRY( 36,  4)   DRY( 36,  5)   
    DRY( 36,  6)   DRY( 36,  7)   DRY( 36,  8)   DRY( 36,  9)   DRY( 36, 10)   
    DRY( 36, 11)   DRY( 36, 12)   DRY( 36, 13)   DRY( 36, 14)   DRY( 36, 15)   
    DRY( 36, 16)   DRY( 36, 17)   DRY( 36, 18)   DRY( 36, 19)   DRY( 36, 20)   
    DRY( 36, 21)   DRY( 36, 22)   DRY( 36, 23)   DRY( 36, 24)   DRY( 36, 25)   
    DRY( 36, 26)   DRY( 36, 27)   DRY( 36, 28)   DRY( 36, 29)   DRY( 36, 30)   
    DRY( 36, 31)   DRY( 36, 32)   DRY( 36, 33)   DRY( 36, 34)   DRY( 36, 35)   
    DRY( 36, 36)   DRY( 36, 37)   DRY( 36, 38)   DRY( 36, 39)   DRY( 36, 40)   
    DRY( 37,  1)   DRY( 37,  2)   DRY( 37,  3)   DRY( 37,  4)   DRY( 37,  5)   
    DRY( 37,  6)   DRY( 37,  7)   DRY( 37,  8)   DRY( 37,  9)   DRY( 37, 10)   
    DRY( 37, 11)   DRY( 37, 12)   DRY( 37, 13)   DRY( 37, 14)   DRY( 37, 15)   
    DRY( 37, 16)   DRY( 37, 17)   DRY( 37, 18)   DRY( 37, 19)   DRY( 37, 20)   
    DRY( 37, 21)   DRY( 37, 22)   DRY( 37, 23)   DRY( 37, 24)   DRY( 37, 25)   
    DRY( 37, 26)   DRY( 37, 27)   DRY( 37, 28)   DRY( 37, 29)   DRY( 37, 30)   
    DRY( 37, 31)   DRY( 37, 32)   DRY( 37, 33)   DRY( 37, 34)   DRY( 37, 35)   
    DRY( 37, 36)   DRY( 37, 37)   DRY( 37, 38)   DRY( 37, 39)   DRY( 37, 40)   
    DRY( 38,  1)   DRY( 38,  2)   DRY( 38,  3)   DRY( 38,  4)   DRY( 38,  5)   
    DRY( 38,  6)   DRY( 38,  7)   DRY( 38,  8)   DRY( 38,  9)   DRY( 38, 10)   
    DRY( 38, 11)   DRY( 38, 12)   DRY( 38, 13)   DRY( 38, 14)   DRY( 38, 15)   
    DRY( 38, 16)   DRY( 38, 17)   DRY( 38, 18)   DRY( 38, 19)   DRY( 38, 20)   
    DRY( 38, 21)   DRY( 38, 22)   DRY( 38, 23)   DRY( 38, 24)   DRY( 38, 25)   
    DRY( 38, 26)   DRY( 38, 27)   DRY( 38, 28)   DRY( 38, 29)   DRY( 38, 30)   
    DRY( 38, 31)   DRY( 38, 32)   DRY( 38, 33)   DRY( 38, 34)   DRY( 38, 35)   
    DRY( 38, 36)   DRY( 38, 37)   DRY( 38, 38)   DRY( 38, 39)   DRY( 38, 40)   
    DRY( 39,  1)   DRY( 39,  2)   DRY( 39,  3)   DRY( 39,  4)   DRY( 39,  5)   
    DRY( 39,  6)   DRY( 39,  7)   DRY( 39,  8)   DRY( 39,  9)   DRY( 39, 10)   
    DRY( 39, 11)   DRY( 39, 12)   DRY( 39, 13)   DRY( 39, 14)   DRY( 39, 15)   
    DRY( 39, 16)   DRY( 39, 17)   DRY( 39, 18)   DRY( 39, 19)   DRY( 39, 20)   
    DRY( 39, 21)   DRY( 39, 22)   DRY( 39, 23)   DRY( 39, 24)   DRY( 39, 25)   
    DRY( 39, 26)   DRY( 39, 27)   DRY( 39, 28)   DRY( 39, 29)   DRY( 39, 30)   
    DRY( 39, 31)   DRY( 39, 32)   DRY( 39, 33)   DRY( 39, 34)   DRY( 39, 35)   
    DRY( 39, 36)   DRY( 39, 37)   DRY( 39, 38)   DRY( 39, 39)   DRY( 39, 40)   
    DRY( 40,  1)   DRY( 40,  2)   DRY( 40,  3)   DRY( 40,  4)   DRY( 40,  5)   
    DRY( 40,  6)   DRY( 40,  7)   DRY( 40,  8)   DRY( 40,  9)   DRY( 40, 10)   
    DRY( 40, 11)   DRY( 40, 12)   DRY( 40, 13)   DRY( 40, 14)   DRY( 40, 15)   
    DRY( 40, 16)   DRY( 40, 17)   DRY( 40, 18)   DRY( 40, 19)   DRY( 40, 20)   
    DRY( 40, 21)   DRY( 40, 22)   DRY( 40, 23)   DRY( 40, 24)   DRY( 40, 25)   
    DRY( 40, 26)   DRY( 40, 27)   DRY( 40, 28)   DRY( 40, 29)   DRY( 40, 30)   
    DRY( 40, 31)   DRY( 40, 32)   DRY( 40, 33)   DRY( 40, 34)   DRY( 40, 35)   
    DRY( 40, 36)   DRY( 40, 37)   DRY( 40, 38)   DRY( 40, 39)   DRY( 40, 40)   

 CELL CONVERSIONS FOR ITER.=  1  LAYER=  5  STEP=  1  PERIOD=   1   (ROW,COL)
    DRY(  1,  1)   DRY(  1,  2)   DRY(  1,  3)   DRY(  1,  4)   DRY(  1,  5)   
    DRY(  1,  6)   DRY(  1,  7)   DRY(  1,  8)   DRY(  1,  9)   DRY(  1, 10)   
    DRY(  1, 11)   DRY(  1, 12)   DRY(  1, 13)   DRY(  1, 14)   DRY(  1, 15)   
    DRY(  1, 16)   DRY(  1, 17)   DRY(  1, 18)   DRY(  1, 19)   DRY(  1, 20)   
    DRY(  1, 21)   DRY(  1, 22)   DRY(  1, 23)   DRY(  1, 24)   DRY(  1, 25)   
    DRY(  1, 26)   DRY(  1, 27)   DRY(  1, 28)   DRY(  1, 29)   DRY(  1, 30)   
    DRY(  1, 31)   DRY(  1, 32)   DRY(  1, 33)   DRY(  1, 34)   DRY(  1, 35)   
    DRY(  1, 36)   DRY(  1, 37)   DRY(  1, 38)   DRY(  1, 39)   DRY(  1, 40)   
    DRY(  2,  1)   DRY(  2,  2)   DRY(  2,  3)   DRY(  2,  4)   DRY(  2,  5)   
    DRY(  2,  6)   DRY(  2,  7)   DRY(  2,  8)   DRY(  2,  9)   DRY(  2, 10)   
    DRY(  2, 11)   DRY(  2, 12)   DRY(  2, 13)   DRY(  2, 14)   DRY(  2, 15)   
    DRY(  2, 16)   DRY(  2, 17)   DRY(  2, 18)   DRY(  2, 19)   DRY(  2, 20)   
    DRY(  2, 21)   DRY(  2, 22)   DRY(  2, 23)   DRY(  2, 24)   DRY(  2, 25)   
    DRY(  2, 26)   DRY(  2, 27)   DRY(  2, 28)   DRY(  2, 29)   DRY(  2, 30)   
    DRY(  2, 31)   DRY(  2, 32)   DRY(  2, 33)   DRY(  2, 34)   DRY(  2, 35)   
    DRY(  2, 36)   DRY(  2, 37)   DRY(  2, 38)   DRY(  2, 39)   DRY(  2, 40)   
    DRY(  3,  1)   DRY(  3,  2)   DRY(  3,  3)   DRY(  3,  4)   DRY(  3,  5)   
    DRY(  3,  6)   DRY(  3,  7)   DRY(  3,  8)   DRY(  3,  9)   DRY(  3, 10)   
    DRY(  3, 11)   DRY(  3, 12)   DRY(  3, 13)   DRY(  3, 14)   DRY(  3, 15)   
    DRY(  3, 16)   DRY(  3, 17)   DRY(  3, 18)   DRY(  3, 19)   DRY(  3, 20)   
    DRY(  3, 21)   DRY(  3, 22)   DRY(  3, 23)   DRY(  3, 24)   DRY(  3, 25)   
    DRY(  3, 26)   DRY(  3, 27)   DRY(  3, 28)   DRY(  3, 29)   DRY(  3, 30)   
    DRY(  3, 31)   DRY(  3, 32)   DRY(  3, 33)   DRY(  3, 34)   DRY(  3, 35)   
    DRY(  3, 36)   DRY(  3, 37)   DRY(  3, 38)   DRY(  3, 39)   DRY(  3, 40)   
    DRY(  4,  1)   DRY(  4,  2)   DRY(  4,  3)   DRY(  4,  4)   DRY(  4,  5)   
    DRY(  4,  6)   DRY(  4,  7)   DRY(  4,  8)   DRY(  4,  9)   DRY(  4, 10)   
    DRY(  4, 11)   DRY(  4, 12)   DRY(  4, 13)   DRY(  4, 14)   DRY(  4, 15)   
    DRY(  4, 16)   DRY(  4, 17)   DRY(  4, 18)   DRY(  4, 19)   DRY(  4, 20)   
    DRY(  4, 21)   DRY(  4, 22)   DRY(  4, 23)   DRY(  4, 24)   DRY(  4, 25)   
    DRY(  4, 26)   DRY(  4, 27)   DRY(  4, 28)   DRY(  4, 29)   DRY(  4, 30)   
    DRY(  4, 31)   DRY(  4, 32)   DRY(  4, 33)   DRY(  4, 34)   DRY(  4, 35)   
    DRY(  4, 36)   DRY(  4, 37)   DRY(  4, 38)   DRY(  4, 39)   DRY(  4, 40)   
    DRY(  5,  1)   DRY(  5,  2)   DRY(  5,  3)   DRY(  5,  4)   DRY(  5,  5)   
    DRY(  5,  6)   DRY(  5,  7)   DRY(  5,  8)   DRY(  5,  9)   DRY(  5, 10)   
    DRY(  5, 11)   DRY(  5, 12)   DRY(  5, 13)   DRY(  5, 14)   DRY(  5, 15)   
    DRY(  5, 16)   DRY(  5, 17)   DRY(  5, 18)   DRY(  5, 19)   DRY(  5, 20)   
    DRY(  5, 21)   DRY(  5, 22)   DRY(  5, 23)   DRY(  5, 24)   DRY(  5, 25)   
    DRY(  5, 26)   DRY(  5, 27)   DRY(  5, 28)   DRY(  5, 29)   DRY(  5, 30)   
    DRY(  5, 31)   DRY(  5, 32)   DRY(  5, 33)   DRY(  5, 34)   DRY(  5, 35)   
    DRY(  5, 36)   DRY(  5, 37)   DRY(  5, 38)   DRY(  5, 39)   DRY(  5, 40)   
    DRY(  6,  1)   DRY(  6,  2)   DRY(  6,  3)   DRY(  6,  4)   DRY(  6,  5)   
    DRY(  6,  6)   DRY(  6,  7)   DRY(  6,  8)   DRY(  6,  9)   DRY(  6, 10)   
    DRY(  6, 11)   DRY(  6, 12)   DRY(  6, 13)   DRY(  6, 14)   DRY(  6, 15)   
    DRY(  6, 16)   DRY(  6, 17)   DRY(  6, 18)   DRY(  6, 19)   DRY(  6, 20)   
    DRY(  6, 21)   DRY(  6, 22)   DRY(  6, 23)   DRY(  6, 24)   DRY(  6, 25)   
    DRY(  6, 26)   DRY(  6, 27)   DRY(  6, 28)   DRY(  6, 29)   DRY(  6, 30)   
    DRY(  6, 31)   DRY(  6, 32)   DRY(  6, 33)   DRY(  6, 34)   DRY(  6, 35)   
    DRY(  6, 36)   DRY(  6, 37)   DRY(  6, 38)   DRY(  6, 39)   DRY(  6, 40)   
    DRY(  7,  1)   DRY(  7,  2)   DRY(  7,  3)   DRY(  7,  4)   DRY(  7,  5)   
    DRY(  7,  6)   DRY(  7,  7)   DRY(  7,  8)   DRY(  7,  9)   DRY(  7, 10)   
    DRY(  7, 11)   DRY(  7, 12)   DRY(  7, 13)   DRY(  7, 14)   DRY(  7, 15)   
    DRY(  7, 16)   DRY(  7, 17)   DRY(  7, 18)   DRY(  7, 19)   DRY(  7, 20)   
    DRY(  7, 21)   DRY(  7, 22)   DRY(  7, 23)   DRY(  7, 24)   DRY(  7, 25)   
    DRY(  7, 26)   DRY(  7, 27)   DRY(  7, 28)   DRY(  7, 29)   DRY(  7, 30)   
    DRY(  7, 31)   DRY(  7, 32)   DRY(  7, 33)   DRY(  7, 34)   DRY(  7, 35)   
    DRY(  7, 36)   DRY(  7, 37)   DRY(  7, 38)   DRY(  7, 39)   DRY(  7, 40)   
    DRY(  8,  1)   DRY(  8,  2)   DRY(  8,  3)   DRY(  8,  4)   DRY(  8,  5)   
    DRY(  8,  6)   DRY(  8,  7)   DRY(  8,  8)   DRY(  8,  9)   DRY(  8, 10)   
    DRY(  8, 11)   DRY(  8, 12)   DRY(  8, 13)   DRY(  8, 14)   DRY(  8, 15)   
    DRY(  8, 16)   DRY(  8, 17)   DRY(  8, 18)   DRY(  8, 19)   DRY(  8, 20)   
    DRY(  8, 21)   DRY(  8, 22)   DRY(  8, 23)   DRY(  8, 24)   DRY(  8, 25)   
    DRY(  8, 26)   DRY(  8, 27)   DRY(  8, 28)   DRY(  8, 29)   DRY(  8, 30)   
    DRY(  8, 31)   DRY(  8, 32)   DRY(  8, 33)   DRY(  8, 34)   DRY(  8, 35)   
    DRY(  8, 36)   DRY(  8, 37)   DRY(  8, 38)   DRY(  8, 39)   DRY(  8, 40)   
    DRY(  9,  1)   DRY(  9,  2)   DRY(  9,  3)   DRY(  9,  4)   DRY(  9,  5)   
    DRY(  9,  6)   DRY(  9,  7)   DRY(  9,  8)   DRY(  9,  9)   DRY(  9, 10)   
    DRY(  9, 11)   DRY(  9, 12)   DRY(  9, 13)   DRY(  9, 14)   DRY(  9, 15)   
    DRY(  9, 16)   DRY(  9, 17)   DRY(  9, 18)   DRY(  9, 19)   DRY(  9, 20)   
    DRY(  9, 21)   DRY(  9, 22)   DRY(  9, 23)   DRY(  9, 24)   DRY(  9, 25)   
    DRY(  9, 26)   DRY(  9, 27)   DRY(  9, 28)   DRY(  9, 29)   DRY(  9, 30)   
    DRY(  9, 31)   DRY(  9, 32)   DRY(  9, 33)   DRY(  9, 34)   DRY(  9, 35)   
    DRY(  9, 36)   DRY(  9, 37)   DRY(  9, 38)   DRY(  9, 39)   DRY(  9, 40)   
    DRY( 10,  1)   DRY( 10,  2)   DRY( 10,  3)   DRY( 10,  4)   DRY( 10,  5)   
    DRY( 10,  6)   DRY( 10,  7)   DRY( 10,  8)   DRY( 10,  9)   DRY( 10, 10)   
    DRY( 10, 11)   DRY( 10, 12)   DRY( 10, 13)   DRY( 10, 14)   DRY( 10, 15)   
    DRY( 10, 16)   DRY( 10, 17)   DRY( 10, 18)   DRY( 10, 19)   DRY( 10, 20)   
    DRY( 10, 21)   DRY( 10, 22)   DRY( 10, 23)   DRY( 10, 24)   DRY( 10, 25)   
    DRY( 10, 26)   DRY( 10, 27)   DRY( 10, 28)   DRY( 10, 29)   DRY( 10, 30)   
    DRY( 10, 31)   DRY( 10, 32)   DRY( 10, 33)   DRY( 10, 34)   DRY( 10, 35)   
    DRY( 10, 36)   DRY( 10, 37)   DRY( 10, 38)   DRY( 10, 39)   DRY( 10, 40)   
    DRY( 11,  1)   DRY( 11,  2)   DRY( 11,  3)   DRY( 11,  4)   DRY( 11,  5)   
    DRY( 11,  6)   DRY( 11,  7)   DRY( 11,  8)   DRY( 11,  9)   DRY( 11, 10)   
    DRY( 11, 11)   DRY( 11, 12)   DRY( 11, 13)   DRY( 11, 14)   DRY( 11, 15)   
    DRY( 11, 16)   DRY( 11, 17)   DRY( 11, 18)   DRY( 11, 19)   DRY( 11, 20)   
    DRY( 11, 21)   DRY( 11, 22)   DRY( 11, 23)   DRY( 11, 24)   DRY( 11, 25)   
    DRY( 11, 26)   DRY( 11, 27)   DRY( 11, 28)   DRY( 11, 29)   DRY( 11, 30)   
    DRY( 11, 31)   DRY( 11, 32)   DRY( 11, 33)   DRY( 11, 34)   DRY( 11, 35)   
    DRY( 11, 36)   DRY( 11, 37)   DRY( 11, 38)   DRY( 11, 39)   DRY( 11, 40)   
    DRY( 12,  1)   DRY( 12,  2)   DRY( 12,  3)   DRY( 12,  4)   DRY( 12,  5)   
    DRY( 12,  6)   DRY( 12,  7)   DRY( 12,  8)   DRY( 12,  9)   DRY( 12, 10)   
    DRY( 12, 11)   DRY( 12, 12)   DRY( 12, 13)   DRY( 12, 14)   DRY( 12, 15)   
    DRY( 12, 16)   DRY( 12, 17)   DRY( 12, 18)   DRY( 12, 19)   DRY( 12, 20)   
    DRY( 12, 21)   DRY( 12, 22)   DRY( 12, 23)   DRY( 12, 24)   DRY( 12, 25)   
    DRY( 12, 26)   DRY( 12, 27)   DRY( 12, 28)   DRY( 12, 29)   DRY( 12, 30)   
    DRY( 12, 31)   DRY( 12, 32)   DRY( 12, 33)   DRY( 12, 34)   DRY( 12, 35)   
    DRY( 12, 36)   DRY( 12, 37)   DRY( 12, 38)   DRY( 12, 39)   DRY( 12, 40)   
    DRY( 13,  1)   DRY( 13,  2)   DRY( 13,  3)   DRY( 13,  4)   DRY( 13,  5)   
    DRY( 13,  6)   DRY( 13,  7)   DRY( 13,  8)   DRY( 13,  9)   DRY( 13, 10)   
    DRY( 13, 11)   DRY( 13, 12)   DRY( 13, 13)   DRY( 13, 14)   DRY( 13, 15)   
    DRY( 13, 16)   DRY( 13, 17)   DRY( 13, 18)   DRY( 13, 19)   DRY( 13, 20)   
    DRY( 13, 21)   DRY( 13, 22)   DRY( 13, 23)   DRY( 13, 24)   DRY( 13, 25)   
    DRY( 13, 26)   DRY( 13, 27)   DRY( 13, 28)   DRY( 13, 29)   DRY( 13, 30)   
    DRY( 13, 31)   DRY( 13, 32)   DRY( 13, 33)   DRY( 13, 34)   DRY( 13, 35)   
    DRY( 13, 36)   DRY( 13, 37)   DRY( 13, 38)   DRY( 13, 39)   DRY( 13, 40)   
    DRY( 14,  1)   DRY( 14,  2)   DRY( 14,  3)   DRY( 14,  4)   DRY( 14,  5)   
    DRY( 14,  6)   DRY( 14,  7)   DRY( 14,  8)   DRY( 14,  9)   DRY( 14, 10)   
    DRY( 14, 11)   DRY( 14, 12)   DRY( 14, 13)   DRY( 14, 14)   DRY( 14, 15)   
    DRY( 14, 16)   DRY( 14, 17)   DRY( 14, 18)   DRY( 14, 19)   DRY( 14, 20)   
    DRY( 14, 21)   DRY( 14, 22)   DRY( 14, 23)   DRY( 14, 24)   DRY( 14, 25)   
    DRY( 14, 26)   DRY( 14, 27)   DRY( 14, 28)   DRY( 14, 29)   DRY( 14, 30)   
    DRY( 14, 31)   DRY( 14, 32)   DRY( 14, 33)   DRY( 14, 34)   DRY( 14, 35)   
    DRY( 14, 36)   DRY( 14, 37)   DRY( 14, 38)   DRY( 14, 39)   DRY( 14, 40)   
    DRY( 15,  1)   DRY( 15,  2)   DRY( 15,  3)   DRY( 15,  4)   DRY( 15,  5)   
    DRY( 15,  6)   DRY( 15,  7)   DRY( 15,  8)   DRY( 15,  9)   DRY( 15, 10)   
    DRY( 15, 11)   DRY( 15, 12)   DRY( 15, 13)   DRY( 15, 14)   DRY( 15, 15)   
    DRY( 15, 16)   DRY( 15, 17)   DRY( 15, 18)   DRY( 15, 19)   DRY( 15, 20)   
    DRY( 15, 21)   DRY( 15, 22)   DRY( 15, 23)   DRY( 15, 24)   DRY( 15, 25)   
    DRY( 15, 26)   DRY( 15, 27)   DRY( 15, 28)   DRY( 15, 29)   DRY( 15, 30)   
    DRY( 15, 31)   DRY( 15, 32)   DRY( 15, 33)   DRY( 15, 34)   DRY( 15, 35)   
    DRY( 15, 36)   DRY( 15, 37)   DRY( 15, 38)   DRY( 15, 39)   DRY( 15, 40)   
    DRY( 16,  1)   DRY( 16,  2)   DRY( 16,  3)   DRY( 16,  4)   DRY( 16,  5)   
    DRY( 16,  6)   DRY( 16,  7)   DRY( 16,  8)   DRY( 16,  9)   DRY( 16, 10)   
    DRY( 16, 11)   DRY( 16, 12)   DRY( 16, 13)   DRY( 16, 14)   DRY( 16, 15)   
    DRY( 16, 16)   DRY( 16, 17)   DRY( 16, 18)   DRY( 16, 19)   DRY( 16, 20)   
    DRY( 16, 21)   DRY( 16, 22)   DRY( 16, 23)   DRY( 16, 24)   DRY( 16, 25)   
    DRY( 16, 26)   DRY( 16, 27)   DRY( 16, 28)   DRY( 16, 29)   DRY( 16, 30)   
    DRY( 16, 31)   DRY( 16, 32)   DRY( 16, 33)   DRY( 16, 34)   DRY( 16, 35)   
    DRY( 16, 36)   DRY( 16, 37)   DRY( 16, 38)   DRY( 16, 39)   DRY( 16, 40)   
    DRY( 17,  1)   DRY( 17,  2)   DRY( 17,  3)   DRY( 17,  4)   DRY( 17,  5)   
    DRY( 17,  6)   DRY( 17,  7)   DRY( 17,  8)   DRY( 17,  9)   DRY( 17, 10)   
    DRY( 17, 11)   DRY( 17, 12)   DRY( 17, 13)   DRY( 17, 14)   DRY( 17, 15)   
    DRY( 17, 16)   DRY( 17, 17)   DRY( 17, 18)   DRY( 17, 19)   DRY( 17, 20)   
    DRY( 17, 21)   DRY( 17, 22)   DRY( 17, 23)   DRY( 17, 24)   DRY( 17, 25)   
    DRY( 17, 26)   DRY( 17, 27)   DRY( 17, 28)   DRY( 17, 29)   DRY( 17, 30)   
    DRY( 17, 31)   DRY( 17, 32)   DRY( 17, 33)   DRY( 17, 34)   DRY( 17, 35)   
    DRY( 17, 36)   DRY( 17, 37)   DRY( 17, 38)   DRY( 17, 39)   DRY( 17, 40)   
    DRY( 18,  1)   DRY( 18,  2)   DRY( 18,  3)   DRY( 18,  4)   DRY( 18,  5)   
    DRY( 18,  6)   DRY( 18,  7)   DRY( 18,  8)   DRY( 18,  9)   DRY( 18, 10)   
    DRY( 18, 11)   DRY( 18, 12)   DRY( 18, 13)   DRY( 18, 14)   DRY( 18, 15)   
    DRY( 18, 16)   DRY( 18, 17)   DRY( 18, 18)   DRY( 18, 19)   DRY( 18, 20)   
    DRY( 18, 21)   DRY( 18, 22)   DRY( 18, 23)   DRY( 18, 24)   DRY( 18, 25)   
    DRY( 18, 26)   DRY( 18, 27)   DRY( 18, 28)   DRY( 18, 29)   DRY( 18, 30)   
    DRY( 18, 31)   DRY( 18, 32)   DRY( 18, 33)   DRY( 18, 34)   DRY( 18, 35)   
    DRY( 18, 36)   DRY( 18, 37)   DRY( 18, 38)   DRY( 18, 39)   DRY( 18, 40)   
    DRY( 19,  1)   DRY( 19,  2)   DRY( 19,  3)   DRY( 19,  4)   DRY( 19,  5)   
    DRY( 19,  6)   DRY( 19,  7)   DRY( 19,  8)   DRY( 19,  9)   DRY( 19, 10)   
    DRY( 19, 11)   DRY( 19, 12)   DRY( 19, 13)   DRY( 19, 14)   DRY( 19, 15)   
    DRY( 19, 16)   DRY( 19, 17)   DRY( 19, 18)   DRY( 19, 19)   DRY( 19, 20)   
    DRY( 19, 21)   DRY( 19, 22)   DRY( 19, 23)   DRY( 19, 24)   DRY( 19, 25)   
    DRY( 19, 26)   DRY( 19, 27)   DRY( 19, 28)   DRY( 19, 29)   DRY( 19, 30)   
    DRY( 19, 31)   DRY( 19, 32)   DRY( 19, 33)   DRY( 19, 34)   DRY( 19, 35)   
    DRY( 19, 36)   DRY( 19, 37)   DRY( 19, 38)   DRY( 19, 39)   DRY( 19, 40)   
    DRY( 20,  1)   DRY( 20,  2)   DRY( 20,  3)   DRY( 20,  4)   DRY( 20,  5)   
    DRY( 20,  6)   DRY( 20,  7)   DRY( 20,  8)   DRY( 20,  9)   DRY( 20, 10)   
    DRY( 20, 11)   DRY( 20, 12)   DRY( 20, 13)   DRY( 20, 14)   DRY( 20, 15)   
    DRY( 20, 16)   DRY( 20, 17)   DRY( 20, 18)   DRY( 20, 19)   DRY( 20, 20)   
    DRY( 20, 21)   DRY( 20, 22)   DRY( 20, 23)   DRY( 20, 24)   DRY( 20, 25)   
    DRY( 20, 26)   DRY( 20, 27)   DRY( 20, 28)   DRY( 20, 29)   DRY( 20, 30)   
    DRY( 20, 31)   DRY( 20, 32)   DRY( 20, 33)   DRY( 20, 34)   DRY( 20, 35)   
    DRY( 20, 36)   DRY( 20, 37)   DRY( 20, 38)   DRY( 20, 39)   DRY( 20, 40)   
    DRY( 21,  1)   DRY( 21,  2)   DRY( 21,  3)   DRY( 21,  4)   DRY( 21,  5)   
    DRY( 21,  6)   DRY( 21,  7)   DRY( 21,  8)   DRY( 21,  9)   DRY( 21, 10)   
    DRY( 21, 11)   DRY( 21, 12)   DRY( 21, 13)   DRY( 21, 14)   DRY( 21, 15)   
    DRY( 21, 16)   DRY( 21, 17)   DRY( 21, 18)   DRY( 21, 19)   DRY( 21, 20)   
    DRY( 21, 21)   DRY( 21, 22)   DRY( 21, 23)   DRY( 21, 24)   DRY( 21, 25)   
    DRY( 21, 26)   DRY( 21, 27)   DRY( 21, 28)   DRY( 21, 29)   DRY( 21, 30)   
    DRY( 21, 31)   DRY( 21, 32)   DRY( 21, 33)   DRY( 21, 34)   DRY( 21, 35)   
    DRY( 21, 36)   DRY( 21, 37)   DRY( 21, 38)   DRY( 21, 39)   DRY( 21, 40)   
    DRY( 22,  1)   DRY( 22,  2)   DRY( 22,  3)   DRY( 22,  4)   DRY( 22,  5)   
    DRY( 22,  6)   DRY( 22,  7)   DRY( 22,  8)   DRY( 22,  9)   DRY( 22, 10)   
    DRY( 22, 11)   DRY( 22, 12)   DRY( 22, 13)   DRY( 22, 14)   DRY( 22, 15)   
    DRY( 22, 16)   DRY( 22, 17)   DRY( 22, 18)   DRY( 22, 19)   DRY( 22, 20)   
    DRY( 22, 21)   DRY( 22, 22)   DRY( 22, 23)   DRY( 22, 24)   DRY( 22, 25)   
    DRY( 22, 26)   DRY( 22, 27)   DRY( 22, 28)   DRY( 22, 29)   DRY( 22, 30)   
    DRY( 22, 31)   DRY( 22, 32)   DRY( 22, 33)   DRY( 22, 34)   DRY( 22, 35)   
    DRY( 22, 36)   DRY( 22, 37)   DRY( 22, 38)   DRY( 22, 39)   DRY( 22, 40)   
    DRY( 23,  1)   DRY( 23,  2)   DRY( 23,  3)   DRY( 23,  4)   DRY( 23,  5)   
    DRY( 23,  6)   DRY( 23,  7)   DRY( 23,  8)   DRY( 23,  9)   DRY( 23, 10)   
    DRY( 23, 11)   DRY( 23, 12)   DRY( 23, 13)   DRY( 23, 14)   DRY( 23, 15)   
    DRY( 23, 16)   DRY( 23, 17)   DRY( 23, 18)   DRY( 23, 19)   DRY( 23, 20)   
    DRY( 23, 21)   DRY( 23, 22)   DRY( 23, 23)   DRY( 23, 24)   DRY( 23, 25)   
    DRY( 23, 26)   DRY( 23, 27)   DRY( 23, 28)   DRY( 23, 29)   DRY( 23, 30)   
    DRY( 23, 31)   DRY( 23, 32)   DRY( 23, 33)   DRY( 23, 34)   DRY( 23, 35)   
    DRY( 23, 36)   DRY( 23, 37)   DRY( 23, 38)   DRY( 23, 39)   DRY( 23, 40)   
    DRY( 24,  1)   DRY( 24,  2)   DRY( 24,  3)   DRY( 24,  4)   DRY( 24,  5)   
    DRY( 24,  6)   DRY( 24,  7)   DRY( 24,  8)   DRY( 24,  9)   DRY( 24, 10)   
    DRY( 24, 11)   DRY( 24, 12)   DRY( 24, 13)   DRY( 24, 14)   DRY( 24, 15)   
    DRY( 24, 16)   DRY( 24, 17)   DRY( 24, 18)   DRY( 24, 19)   DRY( 24, 20)   
    DRY( 24, 21)   DRY( 24, 22)   DRY( 24, 23)   DRY( 24, 24)   DRY( 24, 25)   
    DRY( 24, 26)   DRY( 24, 27)   DRY( 24, 28)   DRY( 24, 29)   DRY( 24, 30)   
    DRY( 24, 31)   DRY( 24, 32)   DRY( 24, 33)   DRY( 24, 34)   DRY( 24, 35)   
    DRY( 24, 36)   DRY( 24, 37)   DRY( 24, 38)   DRY( 24, 39)   DRY( 24, 40)   
    DRY( 25,  1)   DRY( 25,  2)   DRY( 25,  3)   DRY( 25,  4)   DRY( 25,  5)   
    DRY( 25,  6)   DRY( 25,  7)   DRY( 25,  8)   DRY( 25,  9)   DRY( 25, 10)   
    DRY( 25, 11)   DRY( 25, 12)   DRY( 25, 13)   DRY( 25, 14)   DRY( 25, 15)   
    DRY( 25, 16)   DRY( 25, 17)   DRY( 25, 18)   DRY( 25, 19)   DRY( 25, 20)   
    DRY( 25, 21)   DRY( 25, 22)   DRY( 25, 23)   DRY( 25, 24)   DRY( 25, 25)   
    DRY( 25, 26)   DRY( 25, 27)   DRY( 25, 28)   DRY( 25, 29)   DRY( 25, 30)   
    DRY( 25, 31)   DRY( 25, 32)   DRY( 25, 33)   DRY( 25, 34)   DRY( 25, 35)   
    DRY( 25, 36)   DRY( 25, 37)   DRY( 25, 38)   DRY( 25, 39)   DRY( 25, 40)   
    DRY( 26,  1)   DRY( 26,  2)   DRY( 26,  3)   DRY( 26,  4)   DRY( 26,  5)   
    DRY( 26,  6)   DRY( 26,  7)   DRY( 26,  8)   DRY( 26,  9)   DRY( 26, 10)   
    DRY( 26, 11)   DRY( 26, 12)   DRY( 26, 13)   DRY( 26, 14)   DRY( 26, 15)   
    DRY( 26, 16)   DRY( 26, 17)   DRY( 26, 18)   DRY( 26, 19)   DRY( 26, 20)   
    DRY( 26, 21)   DRY( 26, 22)   DRY( 26, 23)   DRY( 26, 24)   DRY( 26, 25)   
    DRY( 26, 26)   DRY( 26, 27)   DRY( 26, 28)   DRY( 26, 29)   DRY( 26, 30)   
    DRY( 26, 31)   DRY( 26, 32)   DRY( 26, 33)   DRY( 26, 34)   DRY( 26, 35)   
    DRY( 26, 36)   DRY( 26, 37)   DRY( 26, 38)   DRY( 26, 39)   DRY( 26, 40)   
    DRY( 27,  1)   DRY( 27,  2)   DRY( 27,  3)   DRY( 27,  4)   DRY( 27,  5)   
    DRY( 27,  6)   DRY( 27,  7)   DRY( 27,  8)   DRY( 27,  9)   DRY( 27, 10)   
    DRY( 27, 11)   DRY( 27, 12)   DRY( 27, 13)   DRY( 27, 14)   DRY( 27, 15)   
    DRY( 27, 16)   DRY( 27, 17)   DRY( 27, 18)   DRY( 27, 19)   DRY( 27, 20)   
    DRY( 27, 21)   DRY( 27, 22)   DRY( 27, 23)   DRY( 27, 24)   DRY( 27, 25)   
    DRY( 27, 26)   DRY( 27, 27)   DRY( 27, 28)   DRY( 27, 29)   DRY( 27, 30)   
    DRY( 27, 31)   DRY( 27, 32)   DRY( 27, 33)   DRY( 27, 34)   DRY( 27, 35)   
    DRY( 27, 36)   DRY( 27, 37)   DRY( 27, 38)   DRY( 27, 39)   DRY( 27, 40)   
    DRY( 28,  1)   DRY( 28,  2)   DRY( 28,  3)   DRY( 28,  4)   DRY( 28,  5)   
    DRY( 28,  6)   DRY( 28,  7)   DRY( 28,  8)   DRY( 28,  9)   DRY( 28, 10)   
    DRY( 28, 11)   DRY( 28, 12)   DRY( 28, 13)   DRY( 28, 14)   DRY( 28, 15)   
    DRY( 28, 16)   DRY( 28, 17)   DRY( 28, 18)   DRY( 28, 19)   DRY( 28, 20)   
    DRY( 28, 21)   DRY( 28, 22)   DRY( 28, 23)   DRY( 28, 24)   DRY( 28, 25)   
    DRY( 28, 26)   DRY( 28, 27)   DRY( 28, 28)   DRY( 28, 29)   DRY( 28, 30)   
    DRY( 28, 31)   DRY( 28, 32)   DRY( 28, 33)   DRY( 28, 34)   DRY( 28, 35)   
    DRY( 28, 36)   DRY( 28, 37)   DRY( 28, 38)   DRY( 28, 39)   DRY( 28, 40)   
    DRY( 29,  1)   DRY( 29,  2)   DRY( 29,  3)   DRY( 29,  4)   DRY( 29,  5)   
    DRY( 29,  6)   DRY( 29,  7)   DRY( 29,  8)   DRY( 29,  9)   DRY( 29, 10)   
    DRY( 29, 11)   DRY( 29, 12)   DRY( 29, 13)   DRY( 29, 14)   DRY( 29, 15)   
    DRY( 29, 16)   DRY( 29, 17)   DRY( 29, 18)   DRY( 29, 19)   DRY( 29, 20)   
    DRY( 29, 21)   DRY( 29, 22)   DRY( 29, 23)   DRY( 29, 24)   DRY( 29, 25)   
    DRY( 29, 26)   DRY( 29, 27)   DRY( 29, 28)   DRY( 29, 29)   DRY( 29, 30)   
    DRY( 29, 31)   DRY( 29, 32)   DRY( 29, 33)   DRY( 29, 34)   DRY( 29, 35)   
    DRY( 29, 36)   DRY( 29, 37)   DRY( 29, 38)   DRY( 29, 39)   DRY( 29, 40)   
    DRY( 30,  1)   DRY( 30,  2)   DRY( 30,  3)   DRY( 30,  4)   DRY( 30,  5)   
    DRY( 30,  6)   DRY( 30,  7)   DRY( 30,  8)   DRY( 30,  9)   DRY( 30, 10)   
    DRY( 30, 11)   DRY( 30, 12)   DRY( 30, 13)   DRY( 30, 14)   DRY( 30, 15)   
    DRY( 30, 16)   DRY( 30, 17)   DRY( 30, 18)   DRY( 30, 19)   DRY( 30, 20)   
    DRY( 30, 21)   DRY( 30, 22)   DRY( 30, 23)   DRY( 30, 24)   DRY( 30, 25)   
    DRY( 30, 26)   DRY( 30, 27)   DRY( 30, 28)   DRY( 30, 29)   DRY( 30, 30)   
    DRY( 30, 31)   DRY( 30, 32)   DRY( 30, 33)   DRY( 30, 34)   DRY( 30, 35)   
    DRY( 30, 36)   DRY( 30, 37)   DRY( 30, 38)   DRY( 30, 39)   DRY( 30, 40)   
    DRY( 31,  1)   DRY( 31,  2)   DRY( 31,  3)   DRY( 31,  4)   DRY( 31,  5)   
    DRY( 31,  6)   DRY( 31,  7)   DRY( 31,  8)   DRY( 31,  9)   DRY( 31, 10)   
    DRY( 31, 11)   DRY( 31, 12)   DRY( 31, 13)   DRY( 31, 14)   DRY( 31, 15)   
    DRY( 31, 16)   DRY( 31, 17)   DRY( 31, 18)   DRY( 31, 19)   DRY( 31, 20)   
    DRY( 31, 21)   DRY( 31, 22)   DRY( 31, 23)   DRY( 31, 24)   DRY( 31, 25)   
    DRY( 31, 26)   DRY( 31, 27)   DRY( 31, 28)   DRY( 31, 29)   DRY( 31, 30)   
    DRY( 31, 31)   DRY( 31, 32)   DRY( 31, 33)   DRY( 31, 34)   DRY( 31, 35)   
    DRY( 31, 36)   DRY( 31, 37)   DRY( 31, 38)   DRY( 31, 39)   DRY( 31, 40)   
    DRY( 32,  1)   DRY( 32,  2)   DRY( 32,  3)   DRY( 32,  4)   DRY( 32,  5)   
    DRY( 32,  6)   DRY( 32,  7)   DRY( 32,  8)   DRY( 32,  9)   DRY( 32, 10)   
    DRY( 32, 11)   DRY( 32, 12)   DRY( 32, 13)   DRY( 32, 14)   DRY( 32, 15)   
    DRY( 32, 16)   DRY( 32, 17)   DRY( 32, 18)   DRY( 32, 19)   DRY( 32, 20)   
    DRY( 32, 21)   DRY( 32, 22)   DRY( 32, 23)   DRY( 32, 24)   DRY( 32, 25)   
    DRY( 32, 26)   DRY( 32, 27)   DRY( 32, 28)   DRY( 32, 29)   DRY( 32, 30)   
    DRY( 32, 31)   DRY( 32, 32)   DRY( 32, 33)   DRY( 32, 34)   DRY( 32, 35)   
    DRY( 32, 36)   DRY( 32, 37)   DRY( 32, 38)   DRY( 32, 39)   DRY( 32, 40)   
    DRY( 33,  1)   DRY( 33,  2)   DRY( 33,  3)   DRY( 33,  4)   DRY( 33,  5)   
    DRY( 33,  6)   DRY( 33,  7)   DRY( 33,  8)   DRY( 33,  9)   DRY( 33, 10)   
    DRY( 33, 11)   DRY( 33, 12)   DRY( 33, 13)   DRY( 33, 14)   DRY( 33, 15)   
    DRY( 33, 16)   DRY( 33, 17)   DRY( 33, 18)   DRY( 33, 19)   DRY( 33, 20)   
    DRY( 33, 21)   DRY( 33, 22)   DRY( 33, 23)   DRY( 33, 24)   DRY( 33, 25)   
    DRY( 33, 26)   DRY( 33, 27)   DRY( 33, 28)   DRY( 33, 29)   DRY( 33, 30)   
    DRY( 33, 31)   DRY( 33, 32)   DRY( 33, 33)   DRY( 33, 34)   DRY( 33, 35)   
    DRY( 33, 36)   DRY( 33, 37)   DRY( 33, 38)   DRY( 33, 39)   DRY( 33, 40)   
    DRY( 34,  1)   DRY( 34,  2)   DRY( 34,  3)   DRY( 34,  4)   DRY( 34,  5)   
    DRY( 34,  6)   DRY( 34,  7)   DRY( 34,  8)   DRY( 34,  9)   DRY( 34, 10)   
    DRY( 34, 11)   DRY( 34, 12)   DRY( 34, 13)   DRY( 34, 14)   DRY( 34, 15)   
    DRY( 34, 16)   DRY( 34, 17)   DRY( 34, 18)   DRY( 34, 19)   DRY( 34, 20)   
    DRY( 34, 21)   DRY( 34, 22)   DRY( 34, 23)   DRY( 34, 24)   DRY( 34, 25)   
    DRY( 34, 26)   DRY( 34, 27)   DRY( 34, 28)   DRY( 34, 29)   DRY( 34, 30)   
    DRY( 34, 31)   DRY( 34, 32)   DRY( 34, 33)   DRY( 34, 34)   DRY( 34, 35)   
    DRY( 34, 36)   DRY( 34, 37)   DRY( 34, 38)   DRY( 34, 39)   DRY( 34, 40)   
    DRY( 35,  1)   DRY( 35,  2)   DRY( 35,  3)   DRY( 35,  4)   DRY( 35,  5)   
    DRY( 35,  6)   DRY( 35,  7)   DRY( 35,  8)   DRY( 35,  9)   DRY( 35, 10)   
    DRY( 35, 11)   DRY( 35, 12)   DRY( 35, 13)   DRY( 35, 14)   DRY( 35, 15)   
    DRY( 35, 16)   DRY( 35, 17)   DRY( 35, 18)   DRY( 35, 19)   DRY( 35, 20)   
    DRY( 35, 21)   DRY( 35, 22)   DRY( 35, 23)   DRY( 35, 24)   DRY( 35, 25)   
    DRY( 35, 26)   DRY( 35, 27)   DRY( 35, 28)   DRY( 35, 29)   DRY( 35, 30)   
    DRY( 35, 31)   DRY( 35, 32)   DRY( 35, 33)   DRY( 35, 34)   DRY( 35, 35)   
    DRY( 35, 36)   DRY( 35, 37)   DRY( 35, 38)   DRY( 35, 39)   DRY( 35, 40)   
    DRY( 36,  1)   DRY( 36,  2)   DRY( 36,  3)   DRY( 36,  4)   DRY( 36,  5)   
    DRY( 36,  6)   DRY( 36,  7)   DRY( 36,  8)   DRY( 36,  9)   DRY( 36, 10)   
    DRY( 36, 11)   DRY( 36, 12)   DRY( 36, 13)   DRY( 36, 14)   DRY( 36, 15)   
    DRY( 36, 16)   DRY( 36, 17)   DRY( 36, 18)   DRY( 36, 19)   DRY( 36, 20)   
    DRY( 36, 21)   DRY( 36, 22)   DRY( 36, 23)   DRY( 36, 24)   DRY( 36, 25)   
    DRY( 36, 26)   DRY( 36, 27)   DRY( 36, 28)   DRY( 36, 29)   DRY( 36, 30)   
    DRY( 36, 31)   DRY( 36, 32)   DRY( 36, 33)   DRY( 36, 34)   DRY( 36, 35)   
    DRY( 36, 36)   DRY( 36, 37)   DRY( 36, 38)   DRY( 36, 39)   DRY( 36, 40)   
    DRY( 37,  1)   DRY( 37,  2)   DRY( 37,  3)   DRY( 37,  4)   DRY( 37,  5)   
    DRY( 37,  6)   DRY( 37,  7)   DRY( 37,  8)   DRY( 37,  9)   DRY( 37, 10)   
    DRY( 37, 11)   DRY( 37, 12)   DRY( 37, 13)   DRY( 37, 14)   DRY( 37, 15)   
    DRY( 37, 16)   DRY( 37, 17)   DRY( 37, 18)   DRY( 37, 19)   DRY( 37, 20)   
    DRY( 37, 21)   DRY( 37, 22)   DRY( 37, 23)   DRY( 37, 24)   DRY( 37, 25)   
    DRY( 37, 26)   DRY( 37, 27)   DRY( 37, 28)   DRY( 37, 29)   DRY( 37, 30)   
    DRY( 37, 31)   DRY( 37, 32)   DRY( 37, 33)   DRY( 37, 34)   DRY( 37, 35)   
    DRY( 37, 36)   DRY( 37, 37)   DRY( 37, 38)   DRY( 37, 39)   DRY( 37, 40)   
    DRY( 38,  1)   DRY( 38,  2)   DRY( 38,  3)   DRY( 38,  4)   DRY( 38,  5)   
    DRY( 38,  6)   DRY( 38,  7)   DRY( 38,  8)   DRY( 38,  9)   DRY( 38, 10)   
    DRY( 38, 11)   DRY( 38, 12)   DRY( 38, 13)   DRY( 38, 14)   DRY( 38, 15)   
    DRY( 38, 16)   DRY( 38, 17)   DRY( 38, 18)   DRY( 38, 19)   DRY( 38, 20)   
    DRY( 38, 21)   DRY( 38, 22)   DRY( 38, 23)   DRY( 38, 24)   DRY( 38, 25)   
    DRY( 38, 26)   DRY( 38, 27)   DRY( 38, 28)   DRY( 38, 29)   DRY( 38, 30)   
    DRY( 38, 31)   DRY( 38, 32)   DRY( 38, 33)   DRY( 38, 34)   DRY( 38, 35)   
    DRY( 38, 36)   DRY( 38, 37)   DRY( 38, 38)   DRY( 38, 39)   DRY( 38, 40)   
    DRY( 39,  1)   DRY( 39,  2)   DRY( 39,  3)   DRY( 39,  4)   DRY( 39,  5)   
    DRY( 39,  6)   DRY( 39,  7)   DRY( 39,  8)   DRY( 39,  9)   DRY( 39, 10)   
    DRY( 39, 11)   DRY( 39, 12)   DRY( 39, 13)   DRY( 39, 14)   DRY( 39, 15)   
    DRY( 39, 16)   DRY( 39, 17)   DRY( 39, 18)   DRY( 39, 19)   DRY( 39, 20)   
    DRY( 39, 21)   DRY( 39, 22)   DRY( 39, 23)   DRY( 39, 24)   DRY( 39, 25)   
    DRY( 39, 26)   DRY( 39, 27)   DRY( 39, 28)   DRY( 39, 29)   DRY( 39, 30)   
    DRY( 39, 31)   DRY( 39, 32)   DRY( 39, 33)   DRY( 39, 34)   DRY( 39, 35)   
    DRY( 39, 36)   DRY( 39, 37)   DRY( 39, 38)   DRY( 39, 39)   DRY( 39, 40)   
    DRY( 40,  1)   DRY( 40,  2)   DRY( 40,  3)   DRY( 40,  4)   DRY( 40,  5)   
    DRY( 40,  6)   DRY( 40,  7)   DRY( 40,  8)   DRY( 40,  9)   DRY( 40, 10)   
    DRY( 40, 11)   DRY( 40, 12)   DRY( 40, 13)   DRY( 40, 14)   DRY( 40, 15)   
    DRY( 40, 16)   DRY( 40, 17)   DRY( 40, 18)   DRY( 40, 19)   DRY( 40, 20)   
    DRY( 40, 21)   DRY( 40, 22)   DRY( 40, 23)   DRY( 40, 24)   DRY( 40, 25)   
    DRY( 40, 26)   DRY( 40, 27)   DRY( 40, 28)   DRY( 40, 29)   DRY( 40, 30)   
    DRY( 40, 31)   DRY( 40, 32)   DRY( 40, 33)   DRY( 40, 34)   DRY( 40, 35)   
    DRY( 40, 36)   DRY( 40, 37)   DRY( 40, 38)   DRY( 40, 39)   DRY( 40, 40)   

 CELL CONVERSIONS FOR ITER.=  1  LAYER=  6  STEP=  1  PERIOD=   1   (ROW,COL)
    DRY(  1,  1)   DRY(  1,  2)   DRY(  1,  3)   DRY(  1,  4)   DRY(  1,  5)   
    DRY(  1,  6)   DRY(  1,  7)   DRY(  1,  8)   DRY(  1,  9)   DRY(  1, 10)   
    DRY(  1, 11)   DRY(  1, 12)   DRY(  1, 13)   DRY(  1, 14)   DRY(  1, 15)   
    DRY(  1, 16)   DRY(  1, 17)   DRY(  1, 18)   DRY(  1, 19)   DRY(  1, 20)   
    DRY(  1, 21)   DRY(  1, 22)   DRY(  1, 23)   DRY(  1, 24)   DRY(  1, 25)   
    DRY(  1, 26)   DRY(  1, 27)   DRY(  1, 28)   DRY(  1, 29)   DRY(  1, 30)   
    DRY(  1, 31)   DRY(  1, 32)   DRY(  1, 33)   DRY(  1, 34)   DRY(  1, 35)   
    DRY(  1, 36)   DRY(  1, 37)   DRY(  1, 38)   DRY(  1, 39)   DRY(  1, 40)   
    DRY(  2,  1)   DRY(  2,  2)   DRY(  2,  3)   DRY(  2,  4)   DRY(  2,  5)   
    DRY(  2,  6)   DRY(  2,  7)   DRY(  2,  8)   DRY(  2,  9)   DRY(  2, 10)   
    DRY(  2, 11)   DRY(  2, 12)   DRY(  2, 13)   DRY(  2, 14)   DRY(  2, 15)   
    DRY(  2, 16)   DRY(  2, 17)   DRY(  2, 18)   DRY(  2, 19)   DRY(  2, 20)   
    DRY(  2, 21)   DRY(  2, 22)   DRY(  2, 23)   DRY(  2, 24)   DRY(  2, 25)   
    DRY(  2, 26)   DRY(  2, 27)   DRY(  2, 28)   DRY(  2, 29)   DRY(  2, 30)   
    DRY(  2, 31)   DRY(  2, 32)   DRY(  2, 33)   DRY(  2, 34)   DRY(  2, 35)   
    DRY(  2, 36)   DRY(  2, 37)   DRY(  2, 38)   DRY(  2, 39)   DRY(  2, 40)   
    DRY(  3,  1)   DRY(  3,  2)   DRY(  3,  3)   DRY(  3,  4)   DRY(  3,  5)   
    DRY(  3,  6)   DRY(  3,  7)   DRY(  3,  8)   DRY(  3,  9)   DRY(  3, 10)   
    DRY(  3, 11)   DRY(  3, 12)   DRY(  3, 13)   DRY(  3, 14)   DRY(  3, 15)   
    DRY(  3, 16)   DRY(  3, 17)   DRY(  3, 18)   DRY(  3, 19)   DRY(  3, 20)   
    DRY(  3, 21)   DRY(  3, 22)   DRY(  3, 23)   DRY(  3, 24)   DRY(  3, 25)   
    DRY(  3, 26)   DRY(  3, 27)   DRY(  3, 28)   DRY(  3, 29)   DRY(  3, 30)   
    DRY(  3, 31)   DRY(  3, 32)   DRY(  3, 33)   DRY(  3, 34)   DRY(  3, 35)   
    DRY(  3, 36)   DRY(  3, 37)   DRY(  3, 38)   DRY(  3, 39)   DRY(  3, 40)   
    DRY(  4,  1)   DRY(  4,  2)   DRY(  4,  3)   DRY(  4,  4)   DRY(  4,  5)   
    DRY(  4,  6)   DRY(  4,  7)   DRY(  4,  8)   DRY(  4,  9)   DRY(  4, 10)   
    DRY(  4, 11)   DRY(  4, 12)   DRY(  4, 13)   DRY(  4, 14)   DRY(  4, 15)   
    DRY(  4, 16)   DRY(  4, 17)   DRY(  4, 18)   DRY(  4, 19)   DRY(  4, 20)   
    DRY(  4, 21)   DRY(  4, 22)   DRY(  4, 23)   DRY(  4, 24)   DRY(  4, 25)   
    DRY(  4, 26)   DRY(  4, 27)   DRY(  4, 28)   DRY(  4, 29)   DRY(  4, 30)   
    DRY(  4, 31)   DRY(  4, 32)   DRY(  4, 33)   DRY(  4, 34)   DRY(  4, 35)   
    DRY(  4, 36)   DRY(  4, 37)   DRY(  4, 38)   DRY(  4, 39)   DRY(  4, 40)   
    DRY(  5,  1)   DRY(  5,  2)   DRY(  5,  3)   DRY(  5,  4)   DRY(  5,  5)   
    DRY(  5,  6)   DRY(  5,  7)   DRY(  5,  8)   DRY(  5,  9)   DRY(  5, 10)   
    DRY(  5, 11)   DRY(  5, 12)   DRY(  5, 13)   DRY(  5, 14)   DRY(  5, 15)   
    DRY(  5, 16)   DRY(  5, 17)   DRY(  5, 18)   DRY(  5, 19)   DRY(  5, 20)   
    DRY(  5, 21)   DRY(  5, 22)   DRY(  5, 23)   DRY(  5, 24)   DRY(  5, 25)   
    DRY(  5, 26)   DRY(  5, 27)   DRY(  5, 28)   DRY(  5, 29)   DRY(  5, 30)   
    DRY(  5, 31)   DRY(  5, 32)   DRY(  5, 33)   DRY(  5, 34)   DRY(  5, 35)   
    DRY(  5, 36)   DRY(  5, 37)   DRY(  5, 38)   DRY(  5, 39)   DRY(  5, 40)   
    DRY(  6,  1)   DRY(  6,  2)   DRY(  6,  3)   DRY(  6,  4)   DRY(  6,  5)   
    DRY(  6,  6)   DRY(  6,  7)   DRY(  6,  8)   DRY(  6,  9)   DRY(  6, 10)   
    DRY(  6, 11)   DRY(  6, 12)   DRY(  6, 13)   DRY(  6, 14)   DRY(  6, 15)   
    DRY(  6, 16)   DRY(  6, 17)   DRY(  6, 18)   DRY(  6, 19)   DRY(  6, 20)   
    DRY(  6, 21)   DRY(  6, 22)   DRY(  6, 23)   DRY(  6, 24)   DRY(  6, 25)   
    DRY(  6, 26)   DRY(  6, 27)   DRY(  6, 28)   DRY(  6, 29)   DRY(  6, 30)   
    DRY(  6, 31)   DRY(  6, 32)   DRY(  6, 33)   DRY(  6, 34)   DRY(  6, 35)   
    DRY(  6, 36)   DRY(  6, 37)   DRY(  6, 38)   DRY(  6, 39)   DRY(  6, 40)   
    DRY(  7,  1)   DRY(  7,  2)   DRY(  7,  3)   DRY(  7,  4)   DRY(  7,  5)   
    DRY(  7,  6)   DRY(  7,  7)   DRY(  7,  8)   DRY(  7,  9)   DRY(  7, 10)   
    DRY(  7, 11)   DRY(  7, 12)   DRY(  7, 13)   DRY(  7, 14)   DRY(  7, 15)   
    DRY(  7, 16)   DRY(  7, 17)   DRY(  7, 18)   DRY(  7, 19)   DRY(  7, 20)   
    DRY(  7, 21)   DRY(  7, 22)   DRY(  7, 23)   DRY(  7, 24)   DRY(  7, 25)   
    DRY(  7, 26)   DRY(  7, 27)   DRY(  7, 28)   DRY(  7, 29)   DRY(  7, 30)   
    DRY(  7, 31)   DRY(  7, 32)   DRY(  7, 33)   DRY(  7, 34)   DRY(  7, 35)   
    DRY(  7, 36)   DRY(  7, 37)   DRY(  7, 38)   DRY(  7, 39)   DRY(  7, 40)   
    DRY(  8,  1)   DRY(  8,  2)   DRY(  8,  3)   DRY(  8,  4)   DRY(  8,  5)   
    DRY(  8,  6)   DRY(  8,  7)   DRY(  8,  8)   DRY(  8,  9)   DRY(  8, 10)   
    DRY(  8, 11)   DRY(  8, 12)   DRY(  8, 13)   DRY(  8, 14)   DRY(  8, 15)   
    DRY(  8, 16)   DRY(  8, 17)   DRY(  8, 18)   DRY(  8, 19)   DRY(  8, 20)   
    DRY(  8, 21)   DRY(  8, 22)   DRY(  8, 23)   DRY(  8, 24)   DRY(  8, 25)   
    DRY(  8, 26)   DRY(  8, 27)   DRY(  8, 28)   DRY(  8, 29)   DRY(  8, 30)   
    DRY(  8, 31)   DRY(  8, 32)   DRY(  8, 33)   DRY(  8, 34)   DRY(  8, 35)   
    DRY(  8, 36)   DRY(  8, 37)   DRY(  8, 38)   DRY(  8, 39)   DRY(  8, 40)   
    DRY(  9,  1)   DRY(  9,  2)   DRY(  9,  3)   DRY(  9,  4)   DRY(  9,  5)   
    DRY(  9,  6)   DRY(  9,  7)   DRY(  9,  8)   DRY(  9,  9)   DRY(  9, 10)   
    DRY(  9, 11)   DRY(  9, 12)   DRY(  9, 13)   DRY(  9, 14)   DRY(  9, 15)   
    DRY(  9, 16)   DRY(  9, 17)   DRY(  9, 18)   DRY(  9, 19)   DRY(  9, 20)   
    DRY(  9, 21)   DRY(  9, 22)   DRY(  9, 23)   DRY(  9, 24)   DRY(  9, 25)   
    DRY(  9, 26)   DRY(  9, 27)   DRY(  9, 28)   DRY(  9, 29)   DRY(  9, 30)   
    DRY(  9, 31)   DRY(  9, 32)   DRY(  9, 33)   DRY(  9, 34)   DRY(  9, 35)   
    DRY(  9, 36)   DRY(  9, 37)   DRY(  9, 38)   DRY(  9, 39)   DRY(  9, 40)   
    DRY( 10,  1)   DRY( 10,  2)   DRY( 10,  3)   DRY( 10,  4)   DRY( 10,  5)   
    DRY( 10,  6)   DRY( 10,  7)   DRY( 10,  8)   DRY( 10,  9)   DRY( 10, 10)   
    DRY( 10, 11)   DRY( 10, 12)   DRY( 10, 13)   DRY( 10, 14)   DRY( 10, 15)   
    DRY( 10, 16)   DRY( 10, 17)   DRY( 10, 18)   DRY( 10, 19)   DRY( 10, 20)   
    DRY( 10, 21)   DRY( 10, 22)   DRY( 10, 23)   DRY( 10, 24)   DRY( 10, 25)   
    DRY( 10, 26)   DRY( 10, 27)   DRY( 10, 28)   DRY( 10, 29)   DRY( 10, 30)   
    DRY( 10, 31)   DRY( 10, 32)   DRY( 10, 33)   DRY( 10, 34)   DRY( 10, 35)   
    DRY( 10, 36)   DRY( 10, 37)   DRY( 10, 38)   DRY( 10, 39)   DRY( 10, 40)   
    DRY( 11,  1)   DRY( 11,  2)   DRY( 11,  3)   DRY( 11,  4)   DRY( 11,  5)   
    DRY( 11,  6)   DRY( 11,  7)   DRY( 11,  8)   DRY( 11,  9)   DRY( 11, 10)   
    DRY( 11, 11)   DRY( 11, 12)   DRY( 11, 13)   DRY( 11, 14)   DRY( 11, 15)   
    DRY( 11, 16)   DRY( 11, 17)   DRY( 11, 18)   DRY( 11, 19)   DRY( 11, 20)   
    DRY( 11, 21)   DRY( 11, 22)   DRY( 11, 23)   DRY( 11, 24)   DRY( 11, 25)   
    DRY( 11, 26)   DRY( 11, 27)   DRY( 11, 28)   DRY( 11, 29)   DRY( 11, 30)   
    DRY( 11, 31)   DRY( 11, 32)   DRY( 11, 33)   DRY( 11, 34)   DRY( 11, 35)   
    DRY( 11, 36)   DRY( 11, 37)   DRY( 11, 38)   DRY( 11, 39)   DRY( 11, 40)   
    DRY( 12,  1)   DRY( 12,  2)   DRY( 12,  3)   DRY( 12,  4)   DRY( 12,  5)   
    DRY( 12,  6)   DRY( 12,  7)   DRY( 12,  8)   DRY( 12,  9)   DRY( 12, 10)   
    DRY( 12, 11)   DRY( 12, 12)   DRY( 12, 13)   DRY( 12, 14)   DRY( 12, 15)   
    DRY( 12, 16)   DRY( 12, 17)   DRY( 12, 18)   DRY( 12, 19)   DRY( 12, 20)   
    DRY( 12, 21)   DRY( 12, 22)   DRY( 12, 23)   DRY( 12, 24)   DRY( 12, 25)   
    DRY( 12, 26)   DRY( 12, 27)   DRY( 12, 28)   DRY( 12, 29)   DRY( 12, 30)   
    DRY( 12, 31)   DRY( 12, 32)   DRY( 12, 33)   DRY( 12, 34)   DRY( 12, 35)   
    DRY( 12, 36)   DRY( 12, 37)   DRY( 12, 38)   DRY( 12, 39)   DRY( 12, 40)   
    DRY( 13,  1)   DRY( 13,  2)   DRY( 13,  3)   DRY( 13,  4)   DRY( 13,  5)   
    DRY( 13,  6)   DRY( 13,  7)   DRY( 13,  8)   DRY( 13,  9)   DRY( 13, 10)   
    DRY( 13, 11)   DRY( 13, 12)   DRY( 13, 13)   DRY( 13, 14)   DRY( 13, 15)   
    DRY( 13, 16)   DRY( 13, 17)   DRY( 13, 18)   DRY( 13, 19)   DRY( 13, 20)   
    DRY( 13, 21)   DRY( 13, 22)   DRY( 13, 23)   DRY( 13, 24)   DRY( 13, 25)   
    DRY( 13, 26)   DRY( 13, 27)   DRY( 13, 28)   DRY( 13, 29)   DRY( 13, 30)   
    DRY( 13, 31)   DRY( 13, 32)   DRY( 13, 33)   DRY( 13, 34)   DRY( 13, 35)   
    DRY( 13, 36)   DRY( 13, 37)   DRY( 13, 38)   DRY( 13, 39)   DRY( 13, 40)   
    DRY( 14,  1)   DRY( 14,  2)   DRY( 14,  3)   DRY( 14,  4)   DRY( 14,  5)   
    DRY( 14,  6)   DRY( 14,  7)   DRY( 14,  8)   DRY( 14,  9)   DRY( 14, 10)   
    DRY( 14, 11)   DRY( 14, 12)   DRY( 14, 13)   DRY( 14, 14)   DRY( 14, 15)   
    DRY( 14, 16)   DRY( 14, 17)   DRY( 14, 18)   DRY( 14, 19)   DRY( 14, 20)   
    DRY( 14, 21)   DRY( 14, 22)   DRY( 14, 23)   DRY( 14, 24)   DRY( 14, 25)   
    DRY( 14, 26)   DRY( 14, 27)   DRY( 14, 28)   DRY( 14, 29)   DRY( 14, 30)   
    DRY( 14, 31)   DRY( 14, 32)   DRY( 14, 33)   DRY( 14, 34)   DRY( 14, 35)   
    DRY( 14, 36)   DRY( 14, 37)   DRY( 14, 38)   DRY( 14, 39)   DRY( 14, 40)   
    DRY( 15,  1)   DRY( 15,  2)   DRY( 15,  3)   DRY( 15,  4)   DRY( 15,  5)   
    DRY( 15,  6)   DRY( 15,  7)   DRY( 15,  8)   DRY( 15,  9)   DRY( 15, 10)   
    DRY( 15, 11)   DRY( 15, 12)   DRY( 15, 13)   DRY( 15, 14)   DRY( 15, 15)   
    DRY( 15, 16)   DRY( 15, 17)   DRY( 15, 18)   DRY( 15, 19)   DRY( 15, 20)   
    DRY( 15, 21)   DRY( 15, 22)   DRY( 15, 23)   DRY( 15, 24)   DRY( 15, 25)   
    DRY( 15, 26)   DRY( 15, 27)   DRY( 15, 28)   DRY( 15, 29)   DRY( 15, 30)   
    DRY( 15, 31)   DRY( 15, 32)   DRY( 15, 33)   DRY( 15, 34)   DRY( 15, 35)   
    DRY( 15, 36)   DRY( 15, 37)   DRY( 15, 38)   DRY( 15, 39)   DRY( 15, 40)   
    DRY( 16,  1)   DRY( 16,  2)   DRY( 16,  3)   DRY( 16,  4)   DRY( 16,  5)   
    DRY( 16,  6)   DRY( 16,  7)   DRY( 16,  8)   DRY( 16,  9)   DRY( 16, 10)   
    DRY( 16, 11)   DRY( 16, 12)   DRY( 16, 13)   DRY( 16, 14)   DRY( 16, 15)   
    DRY( 16, 16)   DRY( 16, 17)   DRY( 16, 18)   DRY( 16, 19)   DRY( 16, 20)   
    DRY( 16, 21)   DRY( 16, 22)   DRY( 16, 23)   DRY( 16, 24)   DRY( 16, 25)   
    DRY( 16, 26)   DRY( 16, 27)   DRY( 16, 28)   DRY( 16, 29)   DRY( 16, 30)   
    DRY( 16, 31)   DRY( 16, 32)   DRY( 16, 33)   DRY( 16, 34)   DRY( 16, 35)   
    DRY( 16, 36)   DRY( 16, 37)   DRY( 16, 38)   DRY( 16, 39)   DRY( 16, 40)   
    DRY( 17,  1)   DRY( 17,  2)   DRY( 17,  3)   DRY( 17,  4)   DRY( 17,  5)   
    DRY( 17,  6)   DRY( 17,  7)   DRY( 17,  8)   DRY( 17,  9)   DRY( 17, 10)   
    DRY( 17, 11)   DRY( 17, 12)   DRY( 17, 13)   DRY( 17, 14)   DRY( 17, 15)   
    DRY( 17, 16)   DRY( 17, 17)   DRY( 17, 18)   DRY( 17, 19)   DRY( 17, 20)   
    DRY( 17, 21)   DRY( 17, 22)   DRY( 17, 23)   DRY( 17, 24)   DRY( 17, 25)   
    DRY( 17, 26)   DRY( 17, 27)   DRY( 17, 28)   DRY( 17, 29)   DRY( 17, 30)   
    DRY( 17, 31)   DRY( 17, 32)   DRY( 17, 33)   DRY( 17, 34)   DRY( 17, 35)   
    DRY( 17, 36)   DRY( 17, 37)   DRY( 17, 38)   DRY( 17, 39)   DRY( 17, 40)   
    DRY( 18,  1)   DRY( 18,  2)   DRY( 18,  3)   DRY( 18,  4)   DRY( 18,  5)   
    DRY( 18,  6)   DRY( 18,  7)   DRY( 18,  8)   DRY( 18,  9)   DRY( 18, 10)   
    DRY( 18, 11)   DRY( 18, 12)   DRY( 18, 13)   DRY( 18, 14)   DRY( 18, 15)   
    DRY( 18, 16)   DRY( 18, 17)   DRY( 18, 18)   DRY( 18, 19)   DRY( 18, 20)   
    DRY( 18, 21)   DRY( 18, 22)   DRY( 18, 23)   DRY( 18, 24)   DRY( 18, 25)   
    DRY( 18, 26)   DRY( 18, 27)   DRY( 18, 28)   DRY( 18, 29)   DRY( 18, 30)   
    DRY( 18, 31)   DRY( 18, 32)   DRY( 18, 33)   DRY( 18, 34)   DRY( 18, 35)   
    DRY( 18, 36)   DRY( 18, 37)   DRY( 18, 38)   DRY( 18, 39)   DRY( 18, 40)   
    DRY( 19,  1)   DRY( 19,  2)   DRY( 19,  3)   DRY( 19,  4)   DRY( 19,  5)   
    DRY( 19,  6)   DRY( 19,  7)   DRY( 19,  8)   DRY( 19,  9)   DRY( 19, 10)   
    DRY( 19, 11)   DRY( 19, 12)   DRY( 19, 13)   DRY( 19, 14)   DRY( 19, 15)   
    DRY( 19, 16)   DRY( 19, 17)   DRY( 19, 18)   DRY( 19, 19)   DRY( 19, 20)   
    DRY( 19, 21)   DRY( 19, 22)   DRY( 19, 23)   DRY( 19, 24)   DRY( 19, 25)   
    DRY( 19, 26)   DRY( 19, 27)   DRY( 19, 28)   DRY( 19, 29)   DRY( 19, 30)   
    DRY( 19, 31)   DRY( 19, 32)   DRY( 19, 33)   DRY( 19, 34)   DRY( 19, 35)   
    DRY( 19, 36)   DRY( 19, 37)   DRY( 19, 38)   DRY( 19, 39)   DRY( 19, 40)   
    DRY( 20,  1)   DRY( 20,  2)   DRY( 20,  3)   DRY( 20,  4)   DRY( 20,  5)   
    DRY( 20,  6)   DRY( 20,  7)   DRY( 20,  8)   DRY( 20,  9)   DRY( 20, 10)   
    DRY( 20, 11)   DRY( 20, 12)   DRY( 20, 13)   DRY( 20, 14)   DRY( 20, 15)   
    DRY( 20, 16)   DRY( 20, 17)   DRY( 20, 18)   DRY( 20, 19)   DRY( 20, 20)   
    DRY( 20, 21)   DRY( 20, 22)   DRY( 20, 23)   DRY( 20, 24)   DRY( 20, 25)   
    DRY( 20, 26)   DRY( 20, 27)   DRY( 20, 28)   DRY( 20, 29)   DRY( 20, 30)   
    DRY( 20, 31)   DRY( 20, 32)   DRY( 20, 33)   DRY( 20, 34)   DRY( 20, 35)   
    DRY( 20, 36)   DRY( 20, 37)   DRY( 20, 38)   DRY( 20, 39)   DRY( 20, 40)   
    DRY( 21,  1)   DRY( 21,  2)   DRY( 21,  3)   DRY( 21,  4)   DRY( 21,  5)   
    DRY( 21,  6)   DRY( 21,  7)   DRY( 21,  8)   DRY( 21,  9)   DRY( 21, 10)   
    DRY( 21, 11)   DRY( 21, 12)   DRY( 21, 13)   DRY( 21, 14)   DRY( 21, 15)   
    DRY( 21, 16)   DRY( 21, 17)   DRY( 21, 18)   DRY( 21, 19)   DRY( 21, 20)   
    DRY( 21, 21)   DRY( 21, 22)   DRY( 21, 23)   DRY( 21, 24)   DRY( 21, 25)   
    DRY( 21, 26)   DRY( 21, 27)   DRY( 21, 28)   DRY( 21, 29)   DRY( 21, 30)   
    DRY( 21, 31)   DRY( 21, 32)   DRY( 21, 33)   DRY( 21, 34)   DRY( 21, 35)   
    DRY( 21, 36)   DRY( 21, 37)   DRY( 21, 38)   DRY( 21, 39)   DRY( 21, 40)   
    DRY( 22,  1)   DRY( 22,  2)   DRY( 22,  3)   DRY( 22,  4)   DRY( 22,  5)   
    DRY( 22,  6)   DRY( 22,  7)   DRY( 22,  8)   DRY( 22,  9)   DRY( 22, 10)   
    DRY( 22, 11)   DRY( 22, 12)   DRY( 22, 13)   DRY( 22, 14)   DRY( 22, 15)   
    DRY( 22, 16)   DRY( 22, 17)   DRY( 22, 18)   DRY( 22, 19)   DRY( 22, 20)   
    DRY( 22, 21)   DRY( 22, 22)   DRY( 22, 23)   DRY( 22, 24)   DRY( 22, 25)   
    DRY( 22, 26)   DRY( 22, 27)   DRY( 22, 28)   DRY( 22, 29)   DRY( 22, 30)   
    DRY( 22, 31)   DRY( 22, 32)   DRY( 22, 33)   DRY( 22, 34)   DRY( 22, 35)   
    DRY( 22, 36)   DRY( 22, 37)   DRY( 22, 38)   DRY( 22, 39)   DRY( 22, 40)   
    DRY( 23,  1)   DRY( 23,  2)   DRY( 23,  3)   DRY( 23,  4)   DRY( 23,  5)   
    DRY( 23,  6)   DRY( 23,  7)   DRY( 23,  8)   DRY( 23,  9)   DRY( 23, 10)   
    DRY( 23, 11)   DRY( 23, 12)   DRY( 23, 13)   DRY( 23, 14)   DRY( 23, 15)   
    DRY( 23, 16)   DRY( 23, 17)   DRY( 23, 18)   DRY( 23, 19)   DRY( 23, 20)   
    DRY( 23, 21)   DRY( 23, 22)   DRY( 23, 23)   DRY( 23, 24)   DRY( 23, 25)   
    DRY( 23, 26)   DRY( 23, 27)   DRY( 23, 28)   DRY( 23, 29)   DRY( 23, 30)   
    DRY( 23, 31)   DRY( 23, 32)   DRY( 23, 33)   DRY( 23, 34)   DRY( 23, 35)   
    DRY( 23, 36)   DRY( 23, 37)   DRY( 23, 38)   DRY( 23, 39)   DRY( 23, 40)   
    DRY( 24,  1)   DRY( 24,  2)   DRY( 24,  3)   DRY( 24,  4)   DRY( 24,  5)   
    DRY( 24,  6)   DRY( 24,  7)   DRY( 24,  8)   DRY( 24,  9)   DRY( 24, 10)   
    DRY( 24, 11)   DRY( 24, 12)   DRY( 24, 13)   DRY( 24, 14)   DRY( 24, 15)   
    DRY( 24, 16)   DRY( 24, 17)   DRY( 24, 18)   DRY( 24, 19)   DRY( 24, 20)   
    DRY( 24, 21)   DRY( 24, 22)   DRY( 24, 23)   DRY( 24, 24)   DRY( 24, 25)   
    DRY( 24, 26)   DRY( 24, 27)   DRY( 24, 28)   DRY( 24, 29)   DRY( 24, 30)   
    DRY( 24, 31)   DRY( 24, 32)   DRY( 24, 33)   DRY( 24, 34)   DRY( 24, 35)   
    DRY( 24, 36)   DRY( 24, 37)   DRY( 24, 38)   DRY( 24, 39)   DRY( 24, 40)   
    DRY( 25,  1)   DRY( 25,  2)   DRY( 25,  3)   DRY( 25,  4)   DRY( 25,  5)   
    DRY( 25,  6)   DRY( 25,  7)   DRY( 25,  8)   DRY( 25,  9)   DRY( 25, 10)   
    DRY( 25, 11)   DRY( 25, 12)   DRY( 25, 13)   DRY( 25, 14)   DRY( 25, 15)   
    DRY( 25, 16)   DRY( 25, 17)   DRY( 25, 18)   DRY( 25, 19)   DRY( 25, 20)   
    DRY( 25, 21)   DRY( 25, 22)   DRY( 25, 23)   DRY( 25, 24)   DRY( 25, 25)   
    DRY( 25, 26)   DRY( 25, 27)   DRY( 25, 28)   DRY( 25, 29)   DRY( 25, 30)   
    DRY( 25, 31)   DRY( 25, 32)   DRY( 25, 33)   DRY( 25, 34)   DRY( 25, 35)   
    DRY( 25, 36)   DRY( 25, 37)   DRY( 25, 38)   DRY( 25, 39)   DRY( 25, 40)   
    DRY( 26,  1)   DRY( 26,  2)   DRY( 26,  3)   DRY( 26,  4)   DRY( 26,  5)   
    DRY( 26,  6)   DRY( 26,  7)   DRY( 26,  8)   DRY( 26,  9)   DRY( 26, 10)   
    DRY( 26, 11)   DRY( 26, 12)   DRY( 26, 13)   DRY( 26, 14)   DRY( 26, 15)   
    DRY( 26, 16)   DRY( 26, 17)   DRY( 26, 18)   DRY( 26, 19)   DRY( 26, 20)   
    DRY( 26, 21)   DRY( 26, 22)   DRY( 26, 23)   DRY( 26, 24)   DRY( 26, 25)   
    DRY( 26, 26)   DRY( 26, 27)   DRY( 26, 28)   DRY( 26, 29)   DRY( 26, 30)   
    DRY( 26, 31)   DRY( 26, 32)   DRY( 26, 33)   DRY( 26, 34)   DRY( 26, 35)   
    DRY( 26, 36)   DRY( 26, 37)   DRY( 26, 38)   DRY( 26, 39)   DRY( 26, 40)   
    DRY( 27,  1)   DRY( 27,  2)   DRY( 27,  3)   DRY( 27,  4)   DRY( 27,  5)   
    DRY( 27,  6)   DRY( 27,  7)   DRY( 27,  8)   DRY( 27,  9)   DRY( 27, 10)   
    DRY( 27, 11)   DRY( 27, 12)   DRY( 27, 13)   DRY( 27, 14)   DRY( 27, 15)   
    DRY( 27, 16)   DRY( 27, 17)   DRY( 27, 18)   DRY( 27, 19)   DRY( 27, 20)   
    DRY( 27, 21)   DRY( 27, 22)   DRY( 27, 23)   DRY( 27, 24)   DRY( 27, 25)   
    DRY( 27, 26)   DRY( 27, 27)   DRY( 27, 28)   DRY( 27, 29)   DRY( 27, 30)   
    DRY( 27, 31)   DRY( 27, 32)   DRY( 27, 33)   DRY( 27, 34)   DRY( 27, 35)   
    DRY( 27, 36)   DRY( 27, 37)   DRY( 27, 38)   DRY( 27, 39)   DRY( 27, 40)   
    DRY( 28,  1)   DRY( 28,  2)   DRY( 28,  3)   DRY( 28,  4)   DRY( 28,  5)   
    DRY( 28,  6)   DRY( 28,  7)   DRY( 28,  8)   DRY( 28,  9)   DRY( 28, 10)   
    DRY( 28, 11)   DRY( 28, 12)   DRY( 28, 13)   DRY( 28, 14)   DRY( 28, 15)   
    DRY( 28, 16)   DRY( 28, 17)   DRY( 28, 18)   DRY( 28, 19)   DRY( 28, 20)   
    DRY( 28, 21)   DRY( 28, 22)   DRY( 28, 23)   DRY( 28, 24)   DRY( 28, 25)   
    DRY( 28, 26)   DRY( 28, 27)   DRY( 28, 28)   DRY( 28, 29)   DRY( 28, 30)   
    DRY( 28, 31)   DRY( 28, 32)   DRY( 28, 33)   DRY( 28, 34)   DRY( 28, 35)   
    DRY( 28, 36)   DRY( 28, 37)   DRY( 28, 38)   DRY( 28, 39)   DRY( 28, 40)   
    DRY( 29,  1)   DRY( 29,  2)   DRY( 29,  3)   DRY( 29,  4)   DRY( 29,  5)   
    DRY( 29,  6)   DRY( 29,  7)   DRY( 29,  8)   DRY( 29,  9)   DRY( 29, 10)   
    DRY( 29, 11)   DRY( 29, 12)   DRY( 29, 13)   DRY( 29, 14)   DRY( 29, 15)   
    DRY( 29, 16)   DRY( 29, 17)   DRY( 29, 18)   DRY( 29, 19)   DRY( 29, 20)   
    DRY( 29, 21)   DRY( 29, 22)   DRY( 29, 23)   DRY( 29, 24)   DRY( 29, 25)   
    DRY( 29, 26)   DRY( 29, 27)   DRY( 29, 28)   DRY( 29, 29)   DRY( 29, 30)   
    DRY( 29, 31)   DRY( 29, 32)   DRY( 29, 33)   DRY( 29, 34)   DRY( 29, 35)   
    DRY( 29, 36)   DRY( 29, 37)   DRY( 29, 38)   DRY( 29, 39)   DRY( 29, 40)   
    DRY( 30,  1)   DRY( 30,  2)   DRY( 30,  3)   DRY( 30,  4)   DRY( 30,  5)   
    DRY( 30,  6)   DRY( 30,  7)   DRY( 30,  8)   DRY( 30,  9)   DRY( 30, 10)   
    DRY( 30, 11)   DRY( 30, 12)   DRY( 30, 13)   DRY( 30, 14)   DRY( 30, 15)   
    DRY( 30, 16)   DRY( 30, 17)   DRY( 30, 18)   DRY( 30, 19)   DRY( 30, 20)   
    DRY( 30, 21)   DRY( 30, 22)   DRY( 30, 23)   DRY( 30, 24)   DRY( 30, 25)   
    DRY( 30, 26)   DRY( 30, 27)   DRY( 30, 28)   DRY( 30, 29)   DRY( 30, 30)   
    DRY( 30, 31)   DRY( 30, 32)   DRY( 30, 33)   DRY( 30, 34)   DRY( 30, 35)   
    DRY( 30, 36)   DRY( 30, 37)   DRY( 30, 38)   DRY( 30, 39)   DRY( 30, 40)   
    DRY( 31,  1)   DRY( 31,  2)   DRY( 31,  3)   DRY( 31,  4)   DRY( 31,  5)   
    DRY( 31,  6)   DRY( 31,  7)   DRY( 31,  8)   DRY( 31,  9)   DRY( 31, 10)   
    DRY( 31, 11)   DRY( 31, 12)   DRY( 31, 13)   DRY( 31, 14)   DRY( 31, 15)   
    DRY( 31, 16)   DRY( 31, 17)   DRY( 31, 18)   DRY( 31, 19)   DRY( 31, 20)   
    DRY( 31, 21)   DRY( 31, 22)   DRY( 31, 23)   DRY( 31, 24)   DRY( 31, 25)   
    DRY( 31, 26)   DRY( 31, 27)   DRY( 31, 28)   DRY( 31, 29)   DRY( 31, 30)   
    DRY( 31, 31)   DRY( 31, 32)   DRY( 31, 33)   DRY( 31, 34)   DRY( 31, 35)   
    DRY( 31, 36)   DRY( 31, 37)   DRY( 31, 38)   DRY( 31, 39)   DRY( 31, 40)   
    DRY( 32,  1)   DRY( 32,  2)   DRY( 32,  3)   DRY( 32,  4)   DRY( 32,  5)   
    DRY( 32,  6)   DRY( 32,  7)   DRY( 32,  8)   DRY( 32,  9)   DRY( 32, 10)   
    DRY( 32, 11)   DRY( 32, 12)   DRY( 32, 13)   DRY( 32, 14)   DRY( 32, 15)   
    DRY( 32, 16)   DRY( 32, 17)   DRY( 32, 18)   DRY( 32, 19)   DRY( 32, 20)   
    DRY( 32, 21)   DRY( 32, 22)   DRY( 32, 23)   DRY( 32, 24)   DRY( 32, 25)   
    DRY( 32, 26)   DRY( 32, 27)   DRY( 32, 28)   DRY( 32, 29)   DRY( 32, 30)   
    DRY( 32, 31)   DRY( 32, 32)   DRY( 32, 33)   DRY( 32, 34)   DRY( 32, 35)   
    DRY( 32, 36)   DRY( 32, 37)   DRY( 32, 38)   DRY( 32, 39)   DRY( 32, 40)   
    DRY( 33,  1)   DRY( 33,  2)   DRY( 33,  3)   DRY( 33,  4)   DRY( 33,  5)   
    DRY( 33,  6)   DRY( 33,  7)   DRY( 33,  8)   DRY( 33,  9)   DRY( 33, 10)   
    DRY( 33, 11)   DRY( 33, 12)   DRY( 33, 13)   DRY( 33, 14)   DRY( 33, 15)   
    DRY( 33, 16)   DRY( 33, 17)   DRY( 33, 18)   DRY( 33, 19)   DRY( 33, 20)   
    DRY( 33, 21)   DRY( 33, 22)   DRY( 33, 23)   DRY( 33, 24)   DRY( 33, 25)   
    DRY( 33, 26)   DRY( 33, 27)   DRY( 33, 28)   DRY( 33, 29)   DRY( 33, 30)   
    DRY( 33, 31)   DRY( 33, 32)   DRY( 33, 33)   DRY( 33, 34)   DRY( 33, 35)   
    DRY( 33, 36)   DRY( 33, 37)   DRY( 33, 38)   DRY( 33, 39)   DRY( 33, 40)   
    DRY( 34,  1)   DRY( 34,  2)   DRY( 34,  3)   DRY( 34,  4)   DRY( 34,  5)   
    DRY( 34,  6)   DRY( 34,  7)   DRY( 34,  8)   DRY( 34,  9)   DRY( 34, 10)   
    DRY( 34, 11)   DRY( 34, 12)   DRY( 34, 13)   DRY( 34, 14)   DRY( 34, 15)   
    DRY( 34, 16)   DRY( 34, 17)   DRY( 34, 18)   DRY( 34, 19)   DRY( 34, 20)   
    DRY( 34, 21)   DRY( 34, 22)   DRY( 34, 23)   DRY( 34, 24)   DRY( 34, 25)   
    DRY( 34, 26)   DRY( 34, 27)   DRY( 34, 28)   DRY( 34, 29)   DRY( 34, 30)   
    DRY( 34, 31)   DRY( 34, 32)   DRY( 34, 33)   DRY( 34, 34)   DRY( 34, 35)   
    DRY( 34, 36)   DRY( 34, 37)   DRY( 34, 38)   DRY( 34, 39)   DRY( 34, 40)   
    DRY( 35,  1)   DRY( 35,  2)   DRY( 35,  3)   DRY( 35,  4)   DRY( 35,  5)   
    DRY( 35,  6)   DRY( 35,  7)   DRY( 35,  8)   DRY( 35,  9)   DRY( 35, 10)   
    DRY( 35, 11)   DRY( 35, 12)   DRY( 35, 13)   DRY( 35, 14)   DRY( 35, 15)   
    DRY( 35, 16)   DRY( 35, 17)   DRY( 35, 18)   DRY( 35, 19)   DRY( 35, 20)   
    DRY( 35, 21)   DRY( 35, 22)   DRY( 35, 23)   DRY( 35, 24)   DRY( 35, 25)   
    DRY( 35, 26)   DRY( 35, 27)   DRY( 35, 28)   DRY( 35, 29)   DRY( 35, 30)   
    DRY( 35, 31)   DRY( 35, 32)   DRY( 35, 33)   DRY( 35, 34)   DRY( 35, 35)   
    DRY( 35, 36)   DRY( 35, 37)   DRY( 35, 38)   DRY( 35, 39)   DRY( 35, 40)   
    DRY( 36,  1)   DRY( 36,  2)   DRY( 36,  3)   DRY( 36,  4)   DRY( 36,  5)   
    DRY( 36,  6)   DRY( 36,  7)   DRY( 36,  8)   DRY( 36,  9)   DRY( 36, 10)   
    DRY( 36, 11)   DRY( 36, 12)   DRY( 36, 13)   DRY( 36, 14)   DRY( 36, 15)   
    DRY( 36, 16)   DRY( 36, 17)   DRY( 36, 18)   DRY( 36, 19)   DRY( 36, 20)   
    DRY( 36, 21)   DRY( 36, 22)   DRY( 36, 23)   DRY( 36, 24)   DRY( 36, 25)   
    DRY( 36, 26)   DRY( 36, 27)   DRY( 36, 28)   DRY( 36, 29)   DRY( 36, 30)   
    DRY( 36, 31)   DRY( 36, 32)   DRY( 36, 33)   DRY( 36, 34)   DRY( 36, 35)   
    DRY( 36, 36)   DRY( 36, 37)   DRY( 36, 38)   DRY( 36, 39)   DRY( 36, 40)   
    DRY( 37,  1)   DRY( 37,  2)   DRY( 37,  3)   DRY( 37,  4)   DRY( 37,  5)   
    DRY( 37,  6)   DRY( 37,  7)   DRY( 37,  8)   DRY( 37,  9)   DRY( 37, 10)   
    DRY( 37, 11)   DRY( 37, 12)   DRY( 37, 13)   DRY( 37, 14)   DRY( 37, 15)   
    DRY( 37, 16)   DRY( 37, 17)   DRY( 37, 18)   DRY( 37, 19)   DRY( 37, 20)   
    DRY( 37, 21)   DRY( 37, 22)   DRY( 37, 23)   DRY( 37, 24)   DRY( 37, 25)   
    DRY( 37, 26)   DRY( 37, 27)   DRY( 37, 28)   DRY( 37, 29)   DRY( 37, 30)   
    DRY( 37, 31)   DRY( 37, 32)   DRY( 37, 33)   DRY( 37, 34)   DRY( 37, 35)   
    DRY( 37, 36)   DRY( 37, 37)   DRY( 37, 38)   DRY( 37, 39)   DRY( 37, 40)   
    DRY( 38,  1)   DRY( 38,  2)   DRY( 38,  3)   DRY( 38,  4)   DRY( 38,  5)   
    DRY( 38,  6)   DRY( 38,  7)   DRY( 38,  8)   DRY( 38,  9)   DRY( 38, 10)   
    DRY( 38, 11)   DRY( 38, 12)   DRY( 38, 13)   DRY( 38, 14)   DRY( 38, 15)   
    DRY( 38, 16)   DRY( 38, 17)   DRY( 38, 18)   DRY( 38, 19)   DRY( 38, 20)   
    DRY( 38, 21)   DRY( 38, 22)   DRY( 38, 23)   DRY( 38, 24)   DRY( 38, 25)   
    DRY( 38, 26)   DRY( 38, 27)   DRY( 38, 28)   DRY( 38, 29)   DRY( 38, 30)   
    DRY( 38, 31)   DRY( 38, 32)   DRY( 38, 33)   DRY( 38, 34)   DRY( 38, 35)   
    DRY( 38, 36)   DRY( 38, 37)   DRY( 38, 38)   DRY( 38, 39)   DRY( 38, 40)   
    DRY( 39,  1)   DRY( 39,  2)   DRY( 39,  3)   DRY( 39,  4)   DRY( 39,  5)   
    DRY( 39,  6)   DRY( 39,  7)   DRY( 39,  8)   DRY( 39,  9)   DRY( 39, 10)   
    DRY( 39, 11)   DRY( 39, 12)   DRY( 39, 13)   DRY( 39, 14)   DRY( 39, 15)   
    DRY( 39, 16)   DRY( 39, 17)   DRY( 39, 18)   DRY( 39, 19)   DRY( 39, 20)   
    DRY( 39, 21)   DRY( 39, 22)   DRY( 39, 23)   DRY( 39, 24)   DRY( 39, 25)   
    DRY( 39, 26)   DRY( 39, 27)   DRY( 39, 28)   DRY( 39, 29)   DRY( 39, 30)   
    DRY( 39, 31)   DRY( 39, 32)   DRY( 39, 33)   DRY( 39, 34)   DRY( 39, 35)   
    DRY( 39, 36)   DRY( 39, 37)   DRY( 39, 38)   DRY( 39, 39)   DRY( 39, 40)   
    DRY( 40,  1)   DRY( 40,  2)   DRY( 40,  3)   DRY( 40,  4)   DRY( 40,  5)   
    DRY( 40,  6)   DRY( 40,  7)   DRY( 40,  8)   DRY( 40,  9)   DRY( 40, 10)   
    DRY( 40, 11)   DRY( 40, 12)   DRY( 40, 13)   DRY( 40, 14)   DRY( 40, 15)   
    DRY( 40, 16)   DRY( 40, 17)   DRY( 40, 18)   DRY( 40, 19)   DRY( 40, 20)   
    DRY( 40, 21)   DRY( 40, 22)   DRY( 40, 23)   DRY( 40, 24)   DRY( 40, 25)   
    DRY( 40, 26)   DRY( 40, 27)   DRY( 40, 28)   DRY( 40, 29)   DRY( 40, 30)   
    DRY( 40, 31)   DRY( 40, 32)   DRY( 40, 33)   DRY( 40, 34)   DRY( 40, 35)   
    DRY( 40, 36)   DRY( 40, 37)   DRY( 40, 38)   DRY( 40, 39)   DRY( 40, 40)   

 CELL CONVERSIONS FOR ITER.=  1  LAYER=  7  STEP=  1  PERIOD=   1   (ROW,COL)
    DRY(  1,  1)   DRY(  1,  2)   DRY(  1,  3)   DRY(  1,  4)   DRY(  1,  5)   
    DRY(  1,  6)   DRY(  1,  7)   DRY(  1,  8)   DRY(  1,  9)   DRY(  1, 10)   
    DRY(  1, 11)   DRY(  1, 12)   DRY(  1, 13)   DRY(  1, 14)   DRY(  1, 15)   
    DRY(  1, 16)   DRY(  1, 17)   DRY(  1, 18)   DRY(  1, 19)   DRY(  1, 20)   
    DRY(  1, 21)   DRY(  1, 22)   DRY(  1, 23)   DRY(  1, 24)   DRY(  1, 25)   
    DRY(  1, 26)   DRY(  1, 27)   DRY(  1, 28)   DRY(  1, 29)   DRY(  1, 30)   
    DRY(  1, 31)   DRY(  1, 32)   DRY(  1, 33)   DRY(  1, 34)   DRY(  1, 35)   
    DRY(  1, 36)   DRY(  1, 37)   DRY(  1, 38)   DRY(  1, 39)   DRY(  1, 40)   
    DRY(  2,  1)   DRY(  2,  2)   DRY(  2,  3)   DRY(  2,  4)   DRY(  2,  5)   
    DRY(  2,  6)   DRY(  2,  7)   DRY(  2,  8)   DRY(  2,  9)   DRY(  2, 10)   
    DRY(  2, 11)   DRY(  2, 12)   DRY(  2, 13)   DRY(  2, 14)   DRY(  2, 15)   
    DRY(  2, 16)   DRY(  2, 17)   DRY(  2, 18)   DRY(  2, 19)   DRY(  2, 20)   
    DRY(  2, 21)   DRY(  2, 22)   DRY(  2, 23)   DRY(  2, 24)   DRY(  2, 25)   
    DRY(  2, 26)   DRY(  2, 27)   DRY(  2, 28)   DRY(  2, 29)   DRY(  2, 30)   
    DRY(  2, 31)   DRY(  2, 32)   DRY(  2, 33)   DRY(  2, 34)   DRY(  2, 35)   
    DRY(  2, 36)   DRY(  2, 37)   DRY(  2, 38)   DRY(  2, 39)   DRY(  2, 40)   
    DRY(  3,  1)   DRY(  3,  2)   DRY(  3,  3)   DRY(  3,  4)   DRY(  3,  5)   
    DRY(  3,  6)   DRY(  3,  7)   DRY(  3,  8)   DRY(  3,  9)   DRY(  3, 10)   
    DRY(  3, 11)   DRY(  3, 12)   DRY(  3, 13)   DRY(  3, 14)   DRY(  3, 15)   
    DRY(  3, 16)   DRY(  3, 17)   DRY(  3, 18)   DRY(  3, 19)   DRY(  3, 20)   
    DRY(  3, 21)   DRY(  3, 22)   DRY(  3, 23)   DRY(  3, 24)   DRY(  3, 25)   
    DRY(  3, 26)   DRY(  3, 27)   DRY(  3, 28)   DRY(  3, 29)   DRY(  3, 30)   
    DRY(  3, 31)   DRY(  3, 32)   DRY(  3, 33)   DRY(  3, 34)   DRY(  3, 35)   
    DRY(  3, 36)   DRY(  3, 37)   DRY(  3, 38)   DRY(  3, 39)   DRY(  3, 40)   
    DRY(  4,  1)   DRY(  4,  2)   DRY(  4,  3)   DRY(  4,  4)   DRY(  4,  5)   
    DRY(  4,  6)   DRY(  4,  7)   DRY(  4,  8)   DRY(  4,  9)   DRY(  4, 10)   
    DRY(  4, 11)   DRY(  4, 12)   DRY(  4, 13)   DRY(  4, 14)   DRY(  4, 15)   
    DRY(  4, 16)   DRY(  4, 17)   DRY(  4, 18)   DRY(  4, 19)   DRY(  4, 20)   
    DRY(  4, 21)   DRY(  4, 22)   DRY(  4, 23)   DRY(  4, 24)   DRY(  4, 25)   
    DRY(  4, 26)   DRY(  4, 27)   DRY(  4, 28)   DRY(  4, 29)   DRY(  4, 30)   
    DRY(  4, 31)   DRY(  4, 32)   DRY(  4, 33)   DRY(  4, 34)   DRY(  4, 35)   
    DRY(  4, 36)   DRY(  4, 37)   DRY(  4, 38)   DRY(  4, 39)   DRY(  4, 40)   
    DRY(  5,  1)   DRY(  5,  2)   DRY(  5,  3)   DRY(  5,  4)   DRY(  5,  5)   
    DRY(  5,  6)   DRY(  5,  7)   DRY(  5,  8)   DRY(  5,  9)   DRY(  5, 10)   
    DRY(  5, 11)   DRY(  5, 12)   DRY(  5, 13)   DRY(  5, 14)   DRY(  5, 15)   
    DRY(  5, 16)   DRY(  5, 17)   DRY(  5, 18)   DRY(  5, 19)   DRY(  5, 20)   
    DRY(  5, 21)   DRY(  5, 22)   DRY(  5, 23)   DRY(  5, 24)   DRY(  5, 25)   
    DRY(  5, 26)   DRY(  5, 27)   DRY(  5, 28)   DRY(  5, 29)   DRY(  5, 30)   
    DRY(  5, 31)   DRY(  5, 32)   DRY(  5, 33)   DRY(  5, 34)   DRY(  5, 35)   
    DRY(  5, 36)   DRY(  5, 37)   DRY(  5, 38)   DRY(  5, 39)   DRY(  5, 40)   
    DRY(  6,  1)   DRY(  6,  2)   DRY(  6,  3)   DRY(  6,  4)   DRY(  6,  5)   
    DRY(  6,  6)   DRY(  6,  7)   DRY(  6,  8)   DRY(  6,  9)   DRY(  6, 10)   
    DRY(  6, 11)   DRY(  6, 12)   DRY(  6, 13)   DRY(  6, 14)   DRY(  6, 15)   
    DRY(  6, 16)   DRY(  6, 17)   DRY(  6, 18)   DRY(  6, 19)   DRY(  6, 20)   
    DRY(  6, 21)   DRY(  6, 22)   DRY(  6, 23)   DRY(  6, 24)   DRY(  6, 25)   
    DRY(  6, 26)   DRY(  6, 27)   DRY(  6, 28)   DRY(  6, 29)   DRY(  6, 30)   
    DRY(  6, 31)   DRY(  6, 32)   DRY(  6, 33)   DRY(  6, 34)   DRY(  6, 35)   
    DRY(  6, 36)   DRY(  6, 37)   DRY(  6, 38)   DRY(  6, 39)   DRY(  6, 40)   
    DRY(  7,  1)   DRY(  7,  2)   DRY(  7,  3)   DRY(  7,  4)   DRY(  7,  5)   
    DRY(  7,  6)   DRY(  7,  7)   DRY(  7,  8)   DRY(  7,  9)   DRY(  7, 10)   
    DRY(  7, 11)   DRY(  7, 12)   DRY(  7, 13)   DRY(  7, 14)   DRY(  7, 15)   
    DRY(  7, 16)   DRY(  7, 17)   DRY(  7, 18)   DRY(  7, 19)   DRY(  7, 20)   
    DRY(  7, 21)   DRY(  7, 22)   DRY(  7, 23)   DRY(  7, 24)   DRY(  7, 25)   
    DRY(  7, 26)   DRY(  7, 27)   DRY(  7, 28)   DRY(  7, 29)   DRY(  7, 30)   
    DRY(  7, 31)   DRY(  7, 32)   DRY(  7, 33)   DRY(  7, 34)   DRY(  7, 35)   
    DRY(  7, 36)   DRY(  7, 37)   DRY(  7, 38)   DRY(  7, 39)   DRY(  7, 40)   
    DRY(  8,  1)   DRY(  8,  2)   DRY(  8,  3)   DRY(  8,  4)   DRY(  8,  5)   
    DRY(  8,  6)   DRY(  8,  7)   DRY(  8,  8)   DRY(  8,  9)   DRY(  8, 10)   
    DRY(  8, 11)   DRY(  8, 12)   DRY(  8, 13)   DRY(  8, 14)   DRY(  8, 15)   
    DRY(  8, 16)   DRY(  8, 17)   DRY(  8, 18)   DRY(  8, 19)   DRY(  8, 20)   
    DRY(  8, 21)   DRY(  8, 22)   DRY(  8, 23)   DRY(  8, 24)   DRY(  8, 25)   
    DRY(  8, 26)   DRY(  8, 27)   DRY(  8, 28)   DRY(  8, 29)   DRY(  8, 30)   
    DRY(  8, 31)   DRY(  8, 32)   DRY(  8, 33)   DRY(  8, 34)   DRY(  8, 35)   
    DRY(  8, 36)   DRY(  8, 37)   DRY(  8, 38)   DRY(  8, 39)   DRY(  8, 40)   
    DRY(  9,  1)   DRY(  9,  2)   DRY(  9,  3)   DRY(  9,  4)   DRY(  9,  5)   
    DRY(  9,  6)   DRY(  9,  7)   DRY(  9,  8)   DRY(  9,  9)   DRY(  9, 10)   
    DRY(  9, 11)   DRY(  9, 12)   DRY(  9, 13)   DRY(  9, 14)   DRY(  9, 15)   
    DRY(  9, 16)   DRY(  9, 17)   DRY(  9, 18)   DRY(  9, 19)   DRY(  9, 20)   
    DRY(  9, 21)   DRY(  9, 22)   DRY(  9, 23)   DRY(  9, 24)   DRY(  9, 25)   
    DRY(  9, 26)   DRY(  9, 27)   DRY(  9, 28)   DRY(  9, 29)   DRY(  9, 30)   
    DRY(  9, 31)   DRY(  9, 32)   DRY(  9, 33)   DRY(  9, 34)   DRY(  9, 35)   
    DRY(  9, 36)   DRY(  9, 37)   DRY(  9, 38)   DRY(  9, 39)   DRY(  9, 40)   
    DRY( 10,  1)   DRY( 10,  2)   DRY( 10,  3)   DRY( 10,  4)   DRY( 10,  5)   
    DRY( 10,  6)   DRY( 10,  7)   DRY( 10,  8)   DRY( 10,  9)   DRY( 10, 10)   
    DRY( 10, 11)   DRY( 10, 12)   DRY( 10, 13)   DRY( 10, 14)   DRY( 10, 15)   
    DRY( 10, 16)   DRY( 10, 17)   DRY( 10, 18)   DRY( 10, 19)   DRY( 10, 20)   
    DRY( 10, 21)   DRY( 10, 22)   DRY( 10, 23)   DRY( 10, 24)   DRY( 10, 25)   
    DRY( 10, 26)   DRY( 10, 27)   DRY( 10, 28)   DRY( 10, 29)   DRY( 10, 30)   
    DRY( 10, 31)   DRY( 10, 32)   DRY( 10, 33)   DRY( 10, 34)   DRY( 10, 35)   
    DRY( 10, 36)   DRY( 10, 37)   DRY( 10, 38)   DRY( 10, 39)   DRY( 10, 40)   
    DRY( 11,  1)   DRY( 11,  2)   DRY( 11,  3)   DRY( 11,  4)   DRY( 11,  5)   
    DRY( 11,  6)   DRY( 11,  7)   DRY( 11,  8)   DRY( 11,  9)   DRY( 11, 10)   
    DRY( 11, 11)   DRY( 11, 12)   DRY( 11, 13)   DRY( 11, 14)   DRY( 11, 15)   
    DRY( 11, 16)   DRY( 11, 17)   DRY( 11, 18)   DRY( 11, 19)   DRY( 11, 20)   
    DRY( 11, 21)   DRY( 11, 22)   DRY( 11, 23)   DRY( 11, 24)   DRY( 11, 25)   
    DRY( 11, 26)   DRY( 11, 27)   DRY( 11, 28)   DRY( 11, 29)   DRY( 11, 30)   
    DRY( 11, 31)   DRY( 11, 32)   DRY( 11, 33)   DRY( 11, 34)   DRY( 11, 35)   
    DRY( 11, 36)   DRY( 11, 37)   DRY( 11, 38)   DRY( 11, 39)   DRY( 11, 40)   
    DRY( 12,  1)   DRY( 12,  2)   DRY( 12,  3)   DRY( 12,  4)   DRY( 12,  5)   
    DRY( 12,  6)   DRY( 12,  7)   DRY( 12,  8)   DRY( 12,  9)   DRY( 12, 10)   
    DRY( 12, 11)   DRY( 12, 12)   DRY( 12, 13)   DRY( 12, 14)   DRY( 12, 15)   
    DRY( 12, 16)   DRY( 12, 17)   DRY( 12, 18)   DRY( 12, 19)   DRY( 12, 20)   
    DRY( 12, 21)   DRY( 12, 22)   DRY( 12, 23)   DRY( 12, 24)   DRY( 12, 25)   
    DRY( 12, 26)   DRY( 12, 27)   DRY( 12, 28)   DRY( 12, 29)   DRY( 12, 30)   
    DRY( 12, 31)   DRY( 12, 32)   DRY( 12, 33)   DRY( 12, 34)   DRY( 12, 35)   
    DRY( 12, 36)   DRY( 12, 37)   DRY( 12, 38)   DRY( 12, 39)   DRY( 12, 40)   
    DRY( 13,  1)   DRY( 13,  2)   DRY( 13,  3)   DRY( 13,  4)   DRY( 13,  5)   
    DRY( 13,  6)   DRY( 13,  7)   DRY( 13,  8)   DRY( 13,  9)   DRY( 13, 10)   
    DRY( 13, 11)   DRY( 13, 12)   DRY( 13, 13)   DRY( 13, 14)   DRY( 13, 15)   
    DRY( 13, 16)   DRY( 13, 17)   DRY( 13, 18)   DRY( 13, 19)   DRY( 13, 20)   
    DRY( 13, 21)   DRY( 13, 22)   DRY( 13, 23)   DRY( 13, 24)   DRY( 13, 25)   
    DRY( 13, 26)   DRY( 13, 27)   DRY( 13, 28)   DRY( 13, 29)   DRY( 13, 30)   
    DRY( 13, 31)   DRY( 13, 32)   DRY( 13, 33)   DRY( 13, 34)   DRY( 13, 35)   
    DRY( 13, 36)   DRY( 13, 37)   DRY( 13, 38)   DRY( 13, 39)   DRY( 13, 40)   
    DRY( 14,  1)   DRY( 14,  2)   DRY( 14,  3)   DRY( 14,  4)   DRY( 14,  5)   
    DRY( 14,  6)   DRY( 14,  7)   DRY( 14,  8)   DRY( 14,  9)   DRY( 14, 10)   
    DRY( 14, 11)   DRY( 14, 12)   DRY( 14, 13)   DRY( 14, 14)   DRY( 14, 15)   
    DRY( 14, 16)   DRY( 14, 17)   DRY( 14, 18)   DRY( 14, 19)   DRY( 14, 20)   
    DRY( 14, 21)   DRY( 14, 22)   DRY( 14, 23)   DRY( 14, 24)   DRY( 14, 25)   
    DRY( 14, 26)   DRY( 14, 27)   DRY( 14, 28)   DRY( 14, 29)   DRY( 14, 30)   
    DRY( 14, 31)   DRY( 14, 32)   DRY( 14, 33)   DRY( 14, 34)   DRY( 14, 35)   
    DRY( 14, 36)   DRY( 14, 37)   DRY( 14, 38)   DRY( 14, 39)   DRY( 14, 40)   
    DRY( 15,  1)   DRY( 15,  2)   DRY( 15,  3)   DRY( 15,  4)   DRY( 15,  5)   
    DRY( 15,  6)   DRY( 15,  7)   DRY( 15,  8)   DRY( 15,  9)   DRY( 15, 10)   
    DRY( 15, 11)   DRY( 15, 12)   DRY( 15, 13)   DRY( 15, 14)   DRY( 15, 15)   
    DRY( 15, 16)   DRY( 15, 17)   DRY( 15, 18)   DRY( 15, 19)   DRY( 15, 20)   
    DRY( 15, 21)   DRY( 15, 22)   DRY( 15, 23)   DRY( 15, 24)   DRY( 15, 25)   
    DRY( 15, 26)   DRY( 15, 27)   DRY( 15, 28)   DRY( 15, 29)   DRY( 15, 30)   
    DRY( 15, 31)   DRY( 15, 32)   DRY( 15, 33)   DRY( 15, 34)   DRY( 15, 35)   
    DRY( 15, 36)   DRY( 15, 37)   DRY( 15, 38)   DRY( 15, 39)   DRY( 15, 40)   
    DRY( 16,  1)   DRY( 16,  2)   DRY( 16,  3)   DRY( 16,  4)   DRY( 16,  5)   
    DRY( 16,  6)   DRY( 16,  7)   DRY( 16,  8)   DRY( 16,  9)   DRY( 16, 10)   
    DRY( 16, 11)   DRY( 16, 12)   DRY( 16, 13)   DRY( 16, 14)   DRY( 16, 15)   
    DRY( 16, 16)   DRY( 16, 17)   DRY( 16, 18)   DRY( 16, 19)   DRY( 16, 20)   
    DRY( 16, 21)   DRY( 16, 22)   DRY( 16, 23)   DRY( 16, 24)   DRY( 16, 25)   
    DRY( 16, 26)   DRY( 16, 27)   DRY( 16, 28)   DRY( 16, 29)   DRY( 16, 30)   
    DRY( 16, 31)   DRY( 16, 32)   DRY( 16, 33)   DRY( 16, 34)   DRY( 16, 35)   
    DRY( 16, 36)   DRY( 16, 37)   DRY( 16, 38)   DRY( 16, 39)   DRY( 16, 40)   
    DRY( 17,  1)   DRY( 17,  2)   DRY( 17,  3)   DRY( 17,  4)   DRY( 17,  5)   
    DRY( 17,  6)   DRY( 17,  7)   DRY( 17,  8)   DRY( 17,  9)   DRY( 17, 10)   
    DRY( 17, 11)   DRY( 17, 12)   DRY( 17, 13)   DRY( 17, 14)   DRY( 17, 15)   
    DRY( 17, 16)   DRY( 17, 17)   DRY( 17, 18)   DRY( 17, 19)   DRY( 17, 20)   
    DRY( 17, 21)   DRY( 17, 22)   DRY( 17, 23)   DRY( 17, 24)   DRY( 17, 25)   
    DRY( 17, 26)   DRY( 17, 27)   DRY( 17, 28)   DRY( 17, 29)   DRY( 17, 30)   
    DRY( 17, 31)   DRY( 17, 32)   DRY( 17, 33)   DRY( 17, 34)   DRY( 17, 35)   
    DRY( 17, 36)   DRY( 17, 37)   DRY( 17, 38)   DRY( 17, 39)   DRY( 17, 40)   
    DRY( 18,  1)   DRY( 18,  2)   DRY( 18,  3)   DRY( 18,  4)   DRY( 18,  5)   
    DRY( 18,  6)   DRY( 18,  7)   DRY( 18,  8)   DRY( 18,  9)   DRY( 18, 10)   
    DRY( 18, 11)   DRY( 18, 12)   DRY( 18, 13)   DRY( 18, 14)   DRY( 18, 15)   
    DRY( 18, 16)   DRY( 18, 17)   DRY( 18, 18)   DRY( 18, 19)   DRY( 18, 20)   
    DRY( 18, 21)   DRY( 18, 22)   DRY( 18, 23)   DRY( 18, 24)   DRY( 18, 25)   
    DRY( 18, 26)   DRY( 18, 27)   DRY( 18, 28)   DRY( 18, 29)   DRY( 18, 30)   
    DRY( 18, 31)   DRY( 18, 32)   DRY( 18, 33)   DRY( 18, 34)   DRY( 18, 35)   
    DRY( 18, 36)   DRY( 18, 37)   DRY( 18, 38)   DRY( 18, 39)   DRY( 18, 40)   
    DRY( 19,  1)   DRY( 19,  2)   DRY( 19,  3)   DRY( 19,  4)   DRY( 19,  5)   
    DRY( 19,  6)   DRY( 19,  7)   DRY( 19,  8)   DRY( 19,  9)   DRY( 19, 10)   
    DRY( 19, 11)   DRY( 19, 12)   DRY( 19, 13)   DRY( 19, 14)   DRY( 19, 15)   
    DRY( 19, 16)   DRY( 19, 17)   DRY( 19, 18)   DRY( 19, 19)   DRY( 19, 20)   
    DRY( 19, 21)   DRY( 19, 22)   DRY( 19, 23)   DRY( 19, 24)   DRY( 19, 25)   
    DRY( 19, 26)   DRY( 19, 27)   DRY( 19, 28)   DRY( 19, 29)   DRY( 19, 30)   
    DRY( 19, 31)   DRY( 19, 32)   DRY( 19, 33)   DRY( 19, 34)   DRY( 19, 35)   
    DRY( 19, 36)   DRY( 19, 37)   DRY( 19, 38)   DRY( 19, 39)   DRY( 19, 40)   
    DRY( 20,  1)   DRY( 20,  2)   DRY( 20,  3)   DRY( 20,  4)   DRY( 20,  5)   
    DRY( 20,  6)   DRY( 20,  7)   DRY( 20,  8)   DRY( 20,  9)   DRY( 20, 10)   
    DRY( 20, 11)   DRY( 20, 12)   DRY( 20, 13)   DRY( 20, 14)   DRY( 20, 15)   
    DRY( 20, 16)   DRY( 20, 17)   DRY( 20, 18)   DRY( 20, 19)   DRY( 20, 20)   
    DRY( 20, 21)   DRY( 20, 22)   DRY( 20, 23)   DRY( 20, 24)   DRY( 20, 25)   
    DRY( 20, 26)   DRY( 20, 27)   DRY( 20, 28)   DRY( 20, 29)   DRY( 20, 30)   
    DRY( 20, 31)   DRY( 20, 32)   DRY( 20, 33)   DRY( 20, 34)   DRY( 20, 35)   
    DRY( 20, 36)   DRY( 20, 37)   DRY( 20, 38)   DRY( 20, 39)   DRY( 20, 40)   
    DRY( 21,  1)   DRY( 21,  2)   DRY( 21,  3)   DRY( 21,  4)   DRY( 21,  5)   
    DRY( 21,  6)   DRY( 21,  7)   DRY( 21,  8)   DRY( 21,  9)   DRY( 21, 10)   
    DRY( 21, 11)   DRY( 21, 12)   DRY( 21, 13)   DRY( 21, 14)   DRY( 21, 15)   
    DRY( 21, 16)   DRY( 21, 17)   DRY( 21, 18)   DRY( 21, 19)   DRY( 21, 20)   
    DRY( 21, 21)   DRY( 21, 22)   DRY( 21, 23)   DRY( 21, 24)   DRY( 21, 25)   
    DRY( 21, 26)   DRY( 21, 27)   DRY( 21, 28)   DRY( 21, 29)   DRY( 21, 30)   
    DRY( 21, 31)   DRY( 21, 32)   DRY( 21, 33)   DRY( 21, 34)   DRY( 21, 35)   
    DRY( 21, 36)   DRY( 21, 37)   DRY( 21, 38)   DRY( 21, 39)   DRY( 21, 40)   
    DRY( 22,  1)   DRY( 22,  2)   DRY( 22,  3)   DRY( 22,  4)   DRY( 22,  5)   
    DRY( 22,  6)   DRY( 22,  7)   DRY( 22,  8)   DRY( 22,  9)   DRY( 22, 10)   
    DRY( 22, 11)   DRY( 22, 12)   DRY( 22, 13)   DRY( 22, 14)   DRY( 22, 15)   
    DRY( 22, 16)   DRY( 22, 17)   DRY( 22, 18)   DRY( 22, 19)   DRY( 22, 20)   
    DRY( 22, 21)   DRY( 22, 22)   DRY( 22, 23)   DRY( 22, 24)   DRY( 22, 25)   
    DRY( 22, 26)   DRY( 22, 27)   DRY( 22, 28)   DRY( 22, 29)   DRY( 22, 30)   
    DRY( 22, 31)   DRY( 22, 32)   DRY( 22, 33)   DRY( 22, 34)   DRY( 22, 35)   
    DRY( 22, 36)   DRY( 22, 37)   DRY( 22, 38)   DRY( 22, 39)   DRY( 22, 40)   
    DRY( 23,  1)   DRY( 23,  2)   DRY( 23,  3)   DRY( 23,  4)   DRY( 23,  5)   
    DRY( 23,  6)   DRY( 23,  7)   DRY( 23,  8)   DRY( 23,  9)   DRY( 23, 10)   
    DRY( 23, 11)   DRY( 23, 12)   DRY( 23, 13)   DRY( 23, 14)   DRY( 23, 15)   
    DRY( 23, 16)   DRY( 23, 17)   DRY( 23, 18)   DRY( 23, 19)   DRY( 23, 20)   
    DRY( 23, 21)   DRY( 23, 22)   DRY( 23, 23)   DRY( 23, 24)   DRY( 23, 25)   
    DRY( 23, 26)   DRY( 23, 27)   DRY( 23, 28)   DRY( 23, 29)   DRY( 23, 30)   
    DRY( 23, 31)   DRY( 23, 32)   DRY( 23, 33)   DRY( 23, 34)   DRY( 23, 35)   
    DRY( 23, 36)   DRY( 23, 37)   DRY( 23, 38)   DRY( 23, 39)   DRY( 23, 40)   
    DRY( 24,  1)   DRY( 24,  2)   DRY( 24,  3)   DRY( 24,  4)   DRY( 24,  5)   
    DRY( 24,  6)   DRY( 24,  7)   DRY( 24,  8)   DRY( 24,  9)   DRY( 24, 10)   
    DRY( 24, 11)   DRY( 24, 12)   DRY( 24, 13)   DRY( 24, 14)   DRY( 24, 15)   
    DRY( 24, 16)   DRY( 24, 17)   DRY( 24, 18)   DRY( 24, 19)   DRY( 24, 20)   
    DRY( 24, 21)   DRY( 24, 22)   DRY( 24, 23)   DRY( 24, 24)   DRY( 24, 25)   
    DRY( 24, 26)   DRY( 24, 27)   DRY( 24, 28)   DRY( 24, 29)   DRY( 24, 30)   
    DRY( 24, 31)   DRY( 24, 32)   DRY( 24, 33)   DRY( 24, 34)   DRY( 24, 35)   
    DRY( 24, 36)   DRY( 24, 37)   DRY( 24, 38)   DRY( 24, 39)   DRY( 24, 40)   
    DRY( 25,  1)   DRY( 25,  2)   DRY( 25,  3)   DRY( 25,  4)   DRY( 25,  5)   
    DRY( 25,  6)   DRY( 25,  7)   DRY( 25,  8)   DRY( 25,  9)   DRY( 25, 10)   
    DRY( 25, 11)   DRY( 25, 12)   DRY( 25, 13)   DRY( 25, 14)   DRY( 25, 15)   
    DRY( 25, 16)   DRY( 25, 17)   DRY( 25, 18)   DRY( 25, 19)   DRY( 25, 20)   
    DRY( 25, 21)   DRY( 25, 22)   DRY( 25, 23)   DRY( 25, 24)   DRY( 25, 25)   
    DRY( 25, 26)   DRY( 25, 27)   DRY( 25, 28)   DRY( 25, 29)   DRY( 25, 30)   
    DRY( 25, 31)   DRY( 25, 32)   DRY( 25, 33)   DRY( 25, 34)   DRY( 25, 35)   
    DRY( 25, 36)   DRY( 25, 37)   DRY( 25, 38)   DRY( 25, 39)   DRY( 25, 40)   
    DRY( 26,  1)   DRY( 26,  2)   DRY( 26,  3)   DRY( 26,  4)   DRY( 26,  5)   
    DRY( 26,  6)   DRY( 26,  7)   DRY( 26,  8)   DRY( 26,  9)   DRY( 26, 10)   
    DRY( 26, 11)   DRY( 26, 12)   DRY( 26, 13)   DRY( 26, 14)   DRY( 26, 15)   
    DRY( 26, 16)   DRY( 26, 17)   DRY( 26, 18)   DRY( 26, 19)   DRY( 26, 20)   
    DRY( 26, 21)   DRY( 26, 22)   DRY( 26, 23)   DRY( 26, 24)   DRY( 26, 25)   
    DRY( 26, 26)   DRY( 26, 27)   DRY( 26, 28)   DRY( 26, 29)   DRY( 26, 30)   
    DRY( 26, 31)   DRY( 26, 32)   DRY( 26, 33)   DRY( 26, 34)   DRY( 26, 35)   
    DRY( 26, 36)   DRY( 26, 37)   DRY( 26, 38)   DRY( 26, 39)   DRY( 26, 40)   
    DRY( 27,  1)   DRY( 27,  2)   DRY( 27,  3)   DRY( 27,  4)   DRY( 27,  5)   
    DRY( 27,  6)   DRY( 27,  7)   DRY( 27,  8)   DRY( 27,  9)   DRY( 27, 10)   
    DRY( 27, 11)   DRY( 27, 12)   DRY( 27, 13)   DRY( 27, 14)   DRY( 27, 15)   
    DRY( 27, 16)   DRY( 27, 17)   DRY( 27, 18)   DRY( 27, 19)   DRY( 27, 20)   
    DRY( 27, 21)   DRY( 27, 22)   DRY( 27, 23)   DRY( 27, 24)   DRY( 27, 25)   
    DRY( 27, 26)   DRY( 27, 27)   DRY( 27, 28)   DRY( 27, 29)   DRY( 27, 30)   
    DRY( 27, 31)   DRY( 27, 32)   DRY( 27, 33)   DRY( 27, 34)   DRY( 27, 35)   
    DRY( 27, 36)   DRY( 27, 37)   DRY( 27, 38)   DRY( 27, 39)   DRY( 27, 40)   
    DRY( 28,  1)   DRY( 28,  2)   DRY( 28,  3)   DRY( 28,  4)   DRY( 28,  5)   
    DRY( 28,  6)   DRY( 28,  7)   DRY( 28,  8)   DRY( 28,  9)   DRY( 28, 10)   
    DRY( 28, 11)   DRY( 28, 12)   DRY( 28, 13)   DRY( 28, 14)   DRY( 28, 15)   
    DRY( 28, 16)   DRY( 28, 17)   DRY( 28, 18)   DRY( 28, 19)   DRY( 28, 20)   
    DRY( 28, 21)   DRY( 28, 22)   DRY( 28, 23)   DRY( 28, 24)   DRY( 28, 25)   
    DRY( 28, 26)   DRY( 28, 27)   DRY( 28, 28)   DRY( 28, 29)   DRY( 28, 30)   
    DRY( 28, 31)   DRY( 28, 32)   DRY( 28, 33)   DRY( 28, 34)   DRY( 28, 35)   
    DRY( 28, 36)   DRY( 28, 37)   DRY( 28, 38)   DRY( 28, 39)   DRY( 28, 40)   
    DRY( 29,  1)   DRY( 29,  2)   DRY( 29,  3)   DRY( 29,  4)   DRY( 29,  5)   
    DRY( 29,  6)   DRY( 29,  7)   DRY( 29,  8)   DRY( 29,  9)   DRY( 29, 10)   
    DRY( 29, 11)   DRY( 29, 12)   DRY( 29, 13)   DRY( 29, 14)   DRY( 29, 15)   
    DRY( 29, 16)   DRY( 29, 17)   DRY( 29, 18)   DRY( 29, 19)   DRY( 29, 20)   
    DRY( 29, 21)   DRY( 29, 22)   DRY( 29, 23)   DRY( 29, 24)   DRY( 29, 25)   
    DRY( 29, 26)   DRY( 29, 27)   DRY( 29, 28)   DRY( 29, 29)   DRY( 29, 30)   
    DRY( 29, 31)   DRY( 29, 32)   DRY( 29, 33)   DRY( 29, 34)   DRY( 29, 35)   
    DRY( 29, 36)   DRY( 29, 37)   DRY( 29, 38)   DRY( 29, 39)   DRY( 29, 40)   
    DRY( 30,  1)   DRY( 30,  2)   DRY( 30,  3)   DRY( 30,  4)   DRY( 30,  5)   
    DRY( 30,  6)   DRY( 30,  7)   DRY( 30,  8)   DRY( 30,  9)   DRY( 30, 10)   
    DRY( 30, 11)   DRY( 30, 12)   DRY( 30, 13)   DRY( 30, 14)   DRY( 30, 15)   
    DRY( 30, 16)   DRY( 30, 17)   DRY( 30, 18)   DRY( 30, 19)   DRY( 30, 20)   
    DRY( 30, 21)   DRY( 30, 22)   DRY( 30, 23)   DRY( 30, 24)   DRY( 30, 25)   
    DRY( 30, 26)   DRY( 30, 27)   DRY( 30, 28)   DRY( 30, 29)   DRY( 30, 30)   
    DRY( 30, 31)   DRY( 30, 32)   DRY( 30, 33)   DRY( 30, 34)   DRY( 30, 35)   
    DRY( 30, 36)   DRY( 30, 37)   DRY( 30, 38)   DRY( 30, 39)   DRY( 30, 40)   
    DRY( 31,  1)   DRY( 31,  2)   DRY( 31,  3)   DRY( 31,  4)   DRY( 31,  5)   
    DRY( 31,  6)   DRY( 31,  7)   DRY( 31,  8)   DRY( 31,  9)   DRY( 31, 10)   
    DRY( 31, 11)   DRY( 31, 12)   DRY( 31, 13)   DRY( 31, 14)   DRY( 31, 15)   
    DRY( 31, 16)   DRY( 31, 17)   DRY( 31, 18)   DRY( 31, 19)   DRY( 31, 20)   
    DRY( 31, 21)   DRY( 31, 22)   DRY( 31, 23)   DRY( 31, 24)   DRY( 31, 25)   
    DRY( 31, 26)   DRY( 31, 27)   DRY( 31, 28)   DRY( 31, 29)   DRY( 31, 30)   
    DRY( 31, 31)   DRY( 31, 32)   DRY( 31, 33)   DRY( 31, 34)   DRY( 31, 35)   
    DRY( 31, 36)   DRY( 31, 37)   DRY( 31, 38)   DRY( 31, 39)   DRY( 31, 40)   
    DRY( 32,  1)   DRY( 32,  2)   DRY( 32,  3)   DRY( 32,  4)   DRY( 32,  5)   
    DRY( 32,  6)   DRY( 32,  7)   DRY( 32,  8)   DRY( 32,  9)   DRY( 32, 10)   
    DRY( 32, 11)   DRY( 32, 12)   DRY( 32, 13)   DRY( 32, 14)   DRY( 32, 15)   
    DRY( 32, 16)   DRY( 32, 17)   DRY( 32, 18)   DRY( 32, 19)   DRY( 32, 20)   
    DRY( 32, 21)   DRY( 32, 22)   DRY( 32, 23)   DRY( 32, 24)   DRY( 32, 25)   
    DRY( 32, 26)   DRY( 32, 27)   DRY( 32, 28)   DRY( 32, 29)   DRY( 32, 30)   
    DRY( 32, 31)   DRY( 32, 32)   DRY( 32, 33)   DRY( 32, 34)   DRY( 32, 35)   
    DRY( 32, 36)   DRY( 32, 37)   DRY( 32, 38)   DRY( 32, 39)   DRY( 32, 40)   
    DRY( 33,  1)   DRY( 33,  2)   DRY( 33,  3)   DRY( 33,  4)   DRY( 33,  5)   
    DRY( 33,  6)   DRY( 33,  7)   DRY( 33,  8)   DRY( 33,  9)   DRY( 33, 10)   
    DRY( 33, 11)   DRY( 33, 12)   DRY( 33, 13)   DRY( 33, 14)   DRY( 33, 15)   
    DRY( 33, 16)   DRY( 33, 17)   DRY( 33, 18)   DRY( 33, 19)   DRY( 33, 20)   
    DRY( 33, 21)   DRY( 33, 22)   DRY( 33, 23)   DRY( 33, 24)   DRY( 33, 25)   
    DRY( 33, 26)   DRY( 33, 27)   DRY( 33, 28)   DRY( 33, 29)   DRY( 33, 30)   
    DRY( 33, 31)   DRY( 33, 32)   DRY( 33, 33)   DRY( 33, 34)   DRY( 33, 35)   
    DRY( 33, 36)   DRY( 33, 37)   DRY( 33, 38)   DRY( 33, 39)   DRY( 33, 40)   
    DRY( 34,  1)   DRY( 34,  2)   DRY( 34,  3)   DRY( 34,  4)   DRY( 34,  5)   
    DRY( 34,  6)   DRY( 34,  7)   DRY( 34,  8)   DRY( 34,  9)   DRY( 34, 10)   
    DRY( 34, 11)   DRY( 34, 12)   DRY( 34, 13)   DRY( 34, 14)   DRY( 34, 15)   
    DRY( 34, 16)   DRY( 34, 17)   DRY( 34, 18)   DRY( 34, 19)   DRY( 34, 20)   
    DRY( 34, 21)   DRY( 34, 22)   DRY( 34, 23)   DRY( 34, 24)   DRY( 34, 25)   
    DRY( 34, 26)   DRY( 34, 27)   DRY( 34, 28)   DRY( 34, 29)   DRY( 34, 30)   
    DRY( 34, 31)   DRY( 34, 32)   DRY( 34, 33)   DRY( 34, 34)   DRY( 34, 35)   
    DRY( 34, 36)   DRY( 34, 37)   DRY( 34, 38)   DRY( 34, 39)   DRY( 34, 40)   
    DRY( 35,  1)   DRY( 35,  2)   DRY( 35,  3)   DRY( 35,  4)   DRY( 35,  5)   
    DRY( 35,  6)   DRY( 35,  7)   DRY( 35,  8)   DRY( 35,  9)   DRY( 35, 10)   
    DRY( 35, 11)   DRY( 35, 12)   DRY( 35, 13)   DRY( 35, 14)   DRY( 35, 15)   
    DRY( 35, 16)   DRY( 35, 17)   DRY( 35, 18)   DRY( 35, 19)   DRY( 35, 20)   
    DRY( 35, 21)   DRY( 35, 22)   DRY( 35, 23)   DRY( 35, 24)   DRY( 35, 25)   
    DRY( 35, 26)   DRY( 35, 27)   DRY( 35, 28)   DRY( 35, 29)   DRY( 35, 30)   
    DRY( 35, 31)   DRY( 35, 32)   DRY( 35, 33)   DRY( 35, 34)   DRY( 35, 35)   
    DRY( 35, 36)   DRY( 35, 37)   DRY( 35, 38)   DRY( 35, 39)   DRY( 35, 40)   
    DRY( 36,  1)   DRY( 36,  2)   DRY( 36,  3)   DRY( 36,  4)   DRY( 36,  5)   
    DRY( 36,  6)   DRY( 36,  7)   DRY( 36,  8)   DRY( 36,  9)   DRY( 36, 10)   
    DRY( 36, 11)   DRY( 36, 12)   DRY( 36, 13)   DRY( 36, 14)   DRY( 36, 15)   
    DRY( 36, 16)   DRY( 36, 17)   DRY( 36, 18)   DRY( 36, 19)   DRY( 36, 20)   
    DRY( 36, 21)   DRY( 36, 22)   DRY( 36, 23)   DRY( 36, 24)   DRY( 36, 25)   
    DRY( 36, 26)   DRY( 36, 27)   DRY( 36, 28)   DRY( 36, 29)   DRY( 36, 30)   
    DRY( 36, 31)   DRY( 36, 32)   DRY( 36, 33)   DRY( 36, 34)   DRY( 36, 35)   
    DRY( 36, 36)   DRY( 36, 37)   DRY( 36, 38)   DRY( 36, 39)   DRY( 36, 40)   
    DRY( 37,  1)   DRY( 37,  2)   DRY( 37,  3)   DRY( 37,  4)   DRY( 37,  5)   
    DRY( 37,  6)   DRY( 37,  7)   DRY( 37,  8)   DRY( 37,  9)   DRY( 37, 10)   
    DRY( 37, 11)   DRY( 37, 12)   DRY( 37, 13)   DRY( 37, 14)   DRY( 37, 15)   
    DRY( 37, 16)   DRY( 37, 17)   DRY( 37, 18)   DRY( 37, 19)   DRY( 37, 20)   
    DRY( 37, 21)   DRY( 37, 22)   DRY( 37, 23)   DRY( 37, 24)   DRY( 37, 25)   
    DRY( 37, 26)   DRY( 37, 27)   DRY( 37, 28)   DRY( 37, 29)   DRY( 37, 30)   
    DRY( 37, 31)   DRY( 37, 32)   DRY( 37, 33)   DRY( 37, 34)   DRY( 37, 35)   
    DRY( 37, 36)   DRY( 37, 37)   DRY( 37, 38)   DRY( 37, 39)   DRY( 37, 40)   
    DRY( 38,  1)   DRY( 38,  2)   DRY( 38,  3)   DRY( 38,  4)   DRY( 38,  5)   
    DRY( 38,  6)   DRY( 38,  7)   DRY( 38,  8)   DRY( 38,  9)   DRY( 38, 10)   
    DRY( 38, 11)   DRY( 38, 12)   DRY( 38, 13)   DRY( 38, 14)   DRY( 38, 15)   
    DRY( 38, 16)   DRY( 38, 17)   DRY( 38, 18)   DRY( 38, 19)   DRY( 38, 20)   
    DRY( 38, 21)   DRY( 38, 22)   DRY( 38, 23)   DRY( 38, 24)   DRY( 38, 25)   
    DRY( 38, 26)   DRY( 38, 27)   DRY( 38, 28)   DRY( 38, 29)   DRY( 38, 30)   
    DRY( 38, 31)   DRY( 38, 32)   DRY( 38, 33)   DRY( 38, 34)   DRY( 38, 35)   
    DRY( 38, 36)   DRY( 38, 37)   DRY( 38, 38)   DRY( 38, 39)   DRY( 38, 40)   
    DRY( 39,  1)   DRY( 39,  2)   DRY( 39,  3)   DRY( 39,  4)   DRY( 39,  5)   
    DRY( 39,  6)   DRY( 39,  7)   DRY( 39,  8)   DRY( 39,  9)   DRY( 39, 10)   
    DRY( 39, 11)   DRY( 39, 12)   DRY( 39, 13)   DRY( 39, 14)   DRY( 39, 15)   
    DRY( 39, 16)   DRY( 39, 17)   DRY( 39, 18)   DRY( 39, 19)   DRY( 39, 20)   
    DRY( 39, 21)   DRY( 39, 22)   DRY( 39, 23)   DRY( 39, 24)   DRY( 39, 25)   
    DRY( 39, 26)   DRY( 39, 27)   DRY( 39, 28)   DRY( 39, 29)   DRY( 39, 30)   
    DRY( 39, 31)   DRY( 39, 32)   DRY( 39, 33)   DRY( 39, 34)   DRY( 39, 35)   
    DRY( 39, 36)   DRY( 39, 37)   DRY( 39, 38)   DRY( 39, 39)   DRY( 39, 40)   
    DRY( 40,  1)   DRY( 40,  2)   DRY( 40,  3)   DRY( 40,  4)   DRY( 40,  5)   
    DRY( 40,  6)   DRY( 40,  7)   DRY( 40,  8)   DRY( 40,  9)   DRY( 40, 10)   
    DRY( 40, 11)   DRY( 40, 12)   DRY( 40, 13)   DRY( 40, 14)   DRY( 40, 15)   
    DRY( 40, 16)   DRY( 40, 17)   DRY( 40, 18)   DRY( 40, 19)   DRY( 40, 20)   
    DRY( 40, 21)   DRY( 40, 22)   DRY( 40, 23)   DRY( 40, 24)   DRY( 40, 25)   
    DRY( 40, 26)   DRY( 40, 27)   DRY( 40, 28)   DRY( 40, 29)   DRY( 40, 30)   
    DRY( 40, 31)   DRY( 40, 32)   DRY( 40, 33)   DRY( 40, 34)   DRY( 40, 35)   
    DRY( 40, 36)   DRY( 40, 37)   DRY( 40, 38)   DRY( 40, 39)   DRY( 40, 40)   

 CELL CONVERSIONS FOR ITER.=  1  LAYER=  8  STEP=  1  PERIOD=   1   (ROW,COL)
    DRY(  1,  1)   DRY(  1,  2)   DRY(  1,  3)   DRY(  1,  4)   DRY(  1,  5)   
    DRY(  1,  6)   DRY(  1,  7)   DRY(  1,  8)   DRY(  1,  9)   DRY(  1, 10)   
    DRY(  1, 11)   DRY(  1, 12)   DRY(  1, 13)   DRY(  1, 14)   DRY(  1, 15)   
    DRY(  1, 16)   DRY(  1, 17)   DRY(  1, 18)   DRY(  1, 19)   DRY(  1, 20)   
    DRY(  1, 21)   DRY(  1, 22)   DRY(  1, 23)   DRY(  1, 24)   DRY(  1, 25)   
    DRY(  1, 26)   DRY(  1, 27)   DRY(  1, 28)   DRY(  1, 29)   DRY(  1, 30)   
    DRY(  1, 31)   DRY(  1, 32)   DRY(  1, 33)   DRY(  1, 34)   DRY(  1, 35)   
    DRY(  1, 36)   DRY(  1, 37)   DRY(  1, 38)   DRY(  1, 39)   DRY(  1, 40)   
    DRY(  2,  1)   DRY(  2,  2)   DRY(  2,  3)   DRY(  2,  4)   DRY(  2,  5)   
    DRY(  2,  6)   DRY(  2,  7)   DRY(  2,  8)   DRY(  2,  9)   DRY(  2, 10)   
    DRY(  2, 11)   DRY(  2, 12)   DRY(  2, 13)   DRY(  2, 14)   DRY(  2, 15)   
    DRY(  2, 16)   DRY(  2, 17)   DRY(  2, 18)   DRY(  2, 19)   DRY(  2, 20)   
    DRY(  2, 21)   DRY(  2, 22)   DRY(  2, 23)   DRY(  2, 24)   DRY(  2, 25)   
    DRY(  2, 26)   DRY(  2, 27)   DRY(  2, 28)   DRY(  2, 29)   DRY(  2, 30)   
    DRY(  2, 31)   DRY(  2, 32)   DRY(  2, 33)   DRY(  2, 34)   DRY(  2, 35)   
    DRY(  2, 36)   DRY(  2, 37)   DRY(  2, 38)   DRY(  2, 39)   DRY(  2, 40)   
    DRY(  3,  1)   DRY(  3,  2)   DRY(  3,  3)   DRY(  3,  4)   DRY(  3,  5)   
    DRY(  3,  6)   DRY(  3,  7)   DRY(  3,  8)   DRY(  3,  9)   DRY(  3, 10)   
    DRY(  3, 11)   DRY(  3, 12)   DRY(  3, 13)   DRY(  3, 14)   DRY(  3, 15)   
    DRY(  3, 16)   DRY(  3, 17)   DRY(  3, 18)   DRY(  3, 19)   DRY(  3, 20)   
    DRY(  3, 21)   DRY(  3, 22)   DRY(  3, 23)   DRY(  3, 24)   DRY(  3, 25)   
    DRY(  3, 26)   DRY(  3, 27)   DRY(  3, 28)   DRY(  3, 29)   DRY(  3, 30)   
    DRY(  3, 31)   DRY(  3, 32)   DRY(  3, 33)   DRY(  3, 34)   DRY(  3, 35)   
    DRY(  3, 36)   DRY(  3, 37)   DRY(  3, 38)   DRY(  3, 39)   DRY(  3, 40)   
    DRY(  4,  1)   DRY(  4,  2)   DRY(  4,  3)   DRY(  4,  4)   DRY(  4,  5)   
    DRY(  4,  6)   DRY(  4,  7)   DRY(  4,  8)   DRY(  4,  9)   DRY(  4, 10)   
    DRY(  4, 11)   DRY(  4, 12)   DRY(  4, 13)   DRY(  4, 14)   DRY(  4, 15)   
    DRY(  4, 16)   DRY(  4, 17)   DRY(  4, 18)   DRY(  4, 19)   DRY(  4, 20)   
    DRY(  4, 21)   DRY(  4, 22)   DRY(  4, 23)   DRY(  4, 24)   DRY(  4, 25)   
    DRY(  4, 26)   DRY(  4, 27)   DRY(  4, 28)   DRY(  4, 29)   DRY(  4, 30)   
    DRY(  4, 31)   DRY(  4, 32)   DRY(  4, 33)   DRY(  4, 34)   DRY(  4, 35)   
    DRY(  4, 36)   DRY(  4, 37)   DRY(  4, 38)   DRY(  4, 39)   DRY(  4, 40)   
    DRY(  5,  1)   DRY(  5,  2)   DRY(  5,  3)   DRY(  5,  4)   DRY(  5,  5)   
    DRY(  5,  6)   DRY(  5,  7)   DRY(  5,  8)   DRY(  5,  9)   DRY(  5, 10)   
    DRY(  5, 11)   DRY(  5, 12)   DRY(  5, 13)   DRY(  5, 14)   DRY(  5, 15)   
    DRY(  5, 16)   DRY(  5, 17)   DRY(  5, 18)   DRY(  5, 19)   DRY(  5, 20)   
    DRY(  5, 21)   DRY(  5, 22)   DRY(  5, 23)   DRY(  5, 24)   DRY(  5, 25)   
    DRY(  5, 26)   DRY(  5, 27)   DRY(  5, 28)   DRY(  5, 29)   DRY(  5, 30)   
    DRY(  5, 31)   DRY(  5, 32)   DRY(  5, 33)   DRY(  5, 34)   DRY(  5, 35)   
    DRY(  5, 36)   DRY(  5, 37)   DRY(  5, 38)   DRY(  5, 39)   DRY(  5, 40)   
    DRY(  6,  1)   DRY(  6,  2)   DRY(  6,  3)   DRY(  6,  4)   DRY(  6,  5)   
    DRY(  6,  6)   DRY(  6,  7)   DRY(  6,  8)   DRY(  6,  9)   DRY(  6, 10)   
    DRY(  6, 11)   DRY(  6, 12)   DRY(  6, 13)   DRY(  6, 14)   DRY(  6, 15)   
    DRY(  6, 16)   DRY(  6, 17)   DRY(  6, 18)   DRY(  6, 19)   DRY(  6, 20)   
    DRY(  6, 21)   DRY(  6, 22)   DRY(  6, 23)   DRY(  6, 24)   DRY(  6, 25)   
    DRY(  6, 26)   DRY(  6, 27)   DRY(  6, 28)   DRY(  6, 29)   DRY(  6, 30)   
    DRY(  6, 31)   DRY(  6, 32)   DRY(  6, 33)   DRY(  6, 34)   DRY(  6, 35)   
    DRY(  6, 36)   DRY(  6, 37)   DRY(  6, 38)   DRY(  6, 39)   DRY(  6, 40)   
    DRY(  7,  1)   DRY(  7,  2)   DRY(  7,  3)   DRY(  7,  4)   DRY(  7,  5)   
    DRY(  7,  6)   DRY(  7,  7)   DRY(  7,  8)   DRY(  7,  9)   DRY(  7, 10)   
    DRY(  7, 11)   DRY(  7, 12)   DRY(  7, 13)   DRY(  7, 14)   DRY(  7, 15)   
    DRY(  7, 16)   DRY(  7, 17)   DRY(  7, 18)   DRY(  7, 19)   DRY(  7, 20)   
    DRY(  7, 21)   DRY(  7, 22)   DRY(  7, 23)   DRY(  7, 24)   DRY(  7, 25)   
    DRY(  7, 26)   DRY(  7, 27)   DRY(  7, 28)   DRY(  7, 29)   DRY(  7, 30)   
    DRY(  7, 31)   DRY(  7, 32)   DRY(  7, 33)   DRY(  7, 34)   DRY(  7, 35)   
    DRY(  7, 36)   DRY(  7, 37)   DRY(  7, 38)   DRY(  7, 39)   DRY(  7, 40)   
    DRY(  8,  1)   DRY(  8,  2)   DRY(  8,  3)   DRY(  8,  4)   DRY(  8,  5)   
    DRY(  8,  6)   DRY(  8,  7)   DRY(  8,  8)   DRY(  8,  9)   DRY(  8, 10)   
    DRY(  8, 11)   DRY(  8, 12)   DRY(  8, 13)   DRY(  8, 14)   DRY(  8, 15)   
    DRY(  8, 16)   DRY(  8, 17)   DRY(  8, 18)   DRY(  8, 19)   DRY(  8, 20)   
    DRY(  8, 21)   DRY(  8, 22)   DRY(  8, 23)   DRY(  8, 24)   DRY(  8, 25)   
    DRY(  8, 26)   DRY(  8, 27)   DRY(  8, 28)   DRY(  8, 29)   DRY(  8, 30)   
    DRY(  8, 31)   DRY(  8, 32)   DRY(  8, 33)   DRY(  8, 34)   DRY(  8, 35)   
    DRY(  8, 36)   DRY(  8, 37)   DRY(  8, 38)   DRY(  8, 39)   DRY(  8, 40)   
    DRY(  9,  1)   DRY(  9,  2)   DRY(  9,  3)   DRY(  9,  4)   DRY(  9,  5)   
    DRY(  9,  6)   DRY(  9,  7)   DRY(  9,  8)   DRY(  9,  9)   DRY(  9, 10)   
    DRY(  9, 11)   DRY(  9, 12)   DRY(  9, 13)   DRY(  9, 14)   DRY(  9, 15)   
    DRY(  9, 16)   DRY(  9, 17)   DRY(  9, 18)   DRY(  9, 19)   DRY(  9, 20)   
    DRY(  9, 21)   DRY(  9, 22)   DRY(  9, 23)   DRY(  9, 24)   DRY(  9, 25)   
    DRY(  9, 26)   DRY(  9, 27)   DRY(  9, 28)   DRY(  9, 29)   DRY(  9, 30)   
    DRY(  9, 31)   DRY(  9, 32)   DRY(  9, 33)   DRY(  9, 34)   DRY(  9, 35)   
    DRY(  9, 36)   DRY(  9, 37)   DRY(  9, 38)   DRY(  9, 39)   DRY(  9, 40)   
    DRY( 10,  1)   DRY( 10,  2)   DRY( 10,  3)   DRY( 10,  4)   DRY( 10,  5)   
    DRY( 10,  6)   DRY( 10,  7)   DRY( 10,  8)   DRY( 10,  9)   DRY( 10, 10)   
    DRY( 10, 11)   DRY( 10, 12)   DRY( 10, 13)   DRY( 10, 14)   DRY( 10, 15)   
    DRY( 10, 16)   DRY( 10, 17)   DRY( 10, 18)   DRY( 10, 19)   DRY( 10, 20)   
    DRY( 10, 21)   DRY( 10, 22)   DRY( 10, 23)   DRY( 10, 24)   DRY( 10, 25)   
    DRY( 10, 26)   DRY( 10, 27)   DRY( 10, 28)   DRY( 10, 29)   DRY( 10, 30)   
    DRY( 10, 31)   DRY( 10, 32)   DRY( 10, 33)   DRY( 10, 34)   DRY( 10, 35)   
    DRY( 10, 36)   DRY( 10, 37)   DRY( 10, 38)   DRY( 10, 39)   DRY( 10, 40)   
    DRY( 11,  1)   DRY( 11,  2)   DRY( 11,  3)   DRY( 11,  4)   DRY( 11,  5)   
    DRY( 11,  6)   DRY( 11,  7)   DRY( 11,  8)   DRY( 11,  9)   DRY( 11, 10)   
    DRY( 11, 11)   DRY( 11, 12)   DRY( 11, 13)   DRY( 11, 14)   DRY( 11, 15)   
    DRY( 11, 16)   DRY( 11, 17)   DRY( 11, 18)   DRY( 11, 19)   DRY( 11, 20)   
    DRY( 11, 21)   DRY( 11, 22)   DRY( 11, 23)   DRY( 11, 24)   DRY( 11, 25)   
    DRY( 11, 26)   DRY( 11, 27)   DRY( 11, 28)   DRY( 11, 29)   DRY( 11, 30)   
    DRY( 11, 31)   DRY( 11, 32)   DRY( 11, 33)   DRY( 11, 34)   DRY( 11, 35)   
    DRY( 11, 36)   DRY( 11, 37)   DRY( 11, 38)   DRY( 11, 39)   DRY( 11, 40)   
    DRY( 12,  1)   DRY( 12,  2)   DRY( 12,  3)   DRY( 12,  4)   DRY( 12,  5)   
    DRY( 12,  6)   DRY( 12,  7)   DRY( 12,  8)   DRY( 12,  9)   DRY( 12, 10)   
    DRY( 12, 11)   DRY( 12, 12)   DRY( 12, 13)   DRY( 12, 14)   DRY( 12, 15)   
    DRY( 12, 16)   DRY( 12, 17)   DRY( 12, 18)   DRY( 12, 19)   DRY( 12, 20)   
    DRY( 12, 21)   DRY( 12, 22)   DRY( 12, 23)   DRY( 12, 24)   DRY( 12, 25)   
    DRY( 12, 26)   DRY( 12, 27)   DRY( 12, 28)   DRY( 12, 29)   DRY( 12, 30)   
    DRY( 12, 31)   DRY( 12, 32)   DRY( 12, 33)   DRY( 12, 34)   DRY( 12, 35)   
    DRY( 12, 36)   DRY( 12, 37)   DRY( 12, 38)   DRY( 12, 39)   DRY( 12, 40)   
    DRY( 13,  1)   DRY( 13,  2)   DRY( 13,  3)   DRY( 13,  4)   DRY( 13,  5)   
    DRY( 13,  6)   DRY( 13,  7)   DRY( 13,  8)   DRY( 13,  9)   DRY( 13, 10)   
    DRY( 13, 11)   DRY( 13, 12)   DRY( 13, 13)   DRY( 13, 14)   DRY( 13, 15)   
    DRY( 13, 16)   DRY( 13, 17)   DRY( 13, 18)   DRY( 13, 19)   DRY( 13, 20)   
    DRY( 13, 21)   DRY( 13, 22)   DRY( 13, 23)   DRY( 13, 24)   DRY( 13, 25)   
    DRY( 13, 26)   DRY( 13, 27)   DRY( 13, 28)   DRY( 13, 29)   DRY( 13, 30)   
    DRY( 13, 31)   DRY( 13, 32)   DRY( 13, 33)   DRY( 13, 34)   DRY( 13, 35)   
    DRY( 13, 36)   DRY( 13, 37)   DRY( 13, 38)   DRY( 13, 39)   DRY( 13, 40)   
    DRY( 14,  1)   DRY( 14,  2)   DRY( 14,  3)   DRY( 14,  4)   DRY( 14,  5)   
    DRY( 14,  6)   DRY( 14,  7)   DRY( 14,  8)   DRY( 14,  9)   DRY( 14, 10)   
    DRY( 14, 11)   DRY( 14, 12)   DRY( 14, 13)   DRY( 14, 14)   DRY( 14, 15)   
    DRY( 14, 16)   DRY( 14, 17)   DRY( 14, 18)   DRY( 14, 19)   DRY( 14, 20)   
    DRY( 14, 21)   DRY( 14, 22)   DRY( 14, 23)   DRY( 14, 24)   DRY( 14, 25)   
    DRY( 14, 26)   DRY( 14, 27)   DRY( 14, 28)   DRY( 14, 29)   DRY( 14, 30)   
    DRY( 14, 31)   DRY( 14, 32)   DRY( 14, 33)   DRY( 14, 34)   DRY( 14, 35)   
    DRY( 14, 36)   DRY( 14, 37)   DRY( 14, 38)   DRY( 14, 39)   DRY( 14, 40)   
    DRY( 15,  1)   DRY( 15,  2)   DRY( 15,  3)   DRY( 15,  4)   DRY( 15,  5)   
    DRY( 15,  6)   DRY( 15,  7)   DRY( 15,  8)   DRY( 15,  9)   DRY( 15, 10)   
    DRY( 15, 11)   DRY( 15, 12)   DRY( 15, 13)   DRY( 15, 14)   DRY( 15, 15)   
    DRY( 15, 16)   DRY( 15, 17)   DRY( 15, 18)   DRY( 15, 19)   DRY( 15, 20)   
    DRY( 15, 21)   DRY( 15, 22)   DRY( 15, 23)   DRY( 15, 24)   DRY( 15, 25)   
    DRY( 15, 26)   DRY( 15, 27)   DRY( 15, 28)   DRY( 15, 29)   DRY( 15, 30)   
    DRY( 15, 31)   DRY( 15, 32)   DRY( 15, 33)   DRY( 15, 34)   DRY( 15, 35)   
    DRY( 15, 36)   DRY( 15, 37)   DRY( 15, 38)   DRY( 15, 39)   DRY( 15, 40)   
    DRY( 16,  1)   DRY( 16,  2)   DRY( 16,  3)   DRY( 16,  4)   DRY( 16,  5)   
    DRY( 16,  6)   DRY( 16,  7)   DRY( 16,  8)   DRY( 16,  9)   DRY( 16, 10)   
    DRY( 16, 11)   DRY( 16, 12)   DRY( 16, 13)   DRY( 16, 14)   DRY( 16, 15)   
    DRY( 16, 16)   DRY( 16, 17)   DRY( 16, 18)   DRY( 16, 19)   DRY( 16, 20)   
    DRY( 16, 21)   DRY( 16, 22)   DRY( 16, 23)   DRY( 16, 24)   DRY( 16, 25)   
    DRY( 16, 26)   DRY( 16, 27)   DRY( 16, 28)   DRY( 16, 29)   DRY( 16, 30)   
    DRY( 16, 31)   DRY( 16, 32)   DRY( 16, 33)   DRY( 16, 34)   DRY( 16, 35)   
    DRY( 16, 36)   DRY( 16, 37)   DRY( 16, 38)   DRY( 16, 39)   DRY( 16, 40)   
    DRY( 17,  1)   DRY( 17,  2)   DRY( 17,  3)   DRY( 17,  4)   DRY( 17,  5)   
    DRY( 17,  6)   DRY( 17,  7)   DRY( 17,  8)   DRY( 17,  9)   DRY( 17, 10)   
    DRY( 17, 11)   DRY( 17, 12)   DRY( 17, 13)   DRY( 17, 14)   DRY( 17, 15)   
    DRY( 17, 16)   DRY( 17, 17)   DRY( 17, 18)   DRY( 17, 19)   DRY( 17, 20)   
    DRY( 17, 21)   DRY( 17, 22)   DRY( 17, 23)   DRY( 17, 24)   DRY( 17, 25)   
    DRY( 17, 26)   DRY( 17, 27)   DRY( 17, 28)   DRY( 17, 29)   DRY( 17, 30)   
    DRY( 17, 31)   DRY( 17, 32)   DRY( 17, 33)   DRY( 17, 34)   DRY( 17, 35)   
    DRY( 17, 36)   DRY( 17, 37)   DRY( 17, 38)   DRY( 17, 39)   DRY( 17, 40)   
    DRY( 18,  1)   DRY( 18,  2)   DRY( 18,  3)   DRY( 18,  4)   DRY( 18,  5)   
    DRY( 18,  6)   DRY( 18,  7)   DRY( 18,  8)   DRY( 18,  9)   DRY( 18, 10)   
    DRY( 18, 11)   DRY( 18, 12)   DRY( 18, 13)   DRY( 18, 14)   DRY( 18, 15)   
    DRY( 18, 16)   DRY( 18, 17)   DRY( 18, 18)   DRY( 18, 19)   DRY( 18, 20)   
    DRY( 18, 21)   DRY( 18, 22)   DRY( 18, 23)   DRY( 18, 24)   DRY( 18, 25)   
    DRY( 18, 26)   DRY( 18, 27)   DRY( 18, 28)   DRY( 18, 29)   DRY( 18, 30)   
    DRY( 18, 31)   DRY( 18, 32)   DRY( 18, 33)   DRY( 18, 34)   DRY( 18, 35)   
    DRY( 18, 36)   DRY( 18, 37)   DRY( 18, 38)   DRY( 18, 39)   DRY( 18, 40)   
    DRY( 19,  1)   DRY( 19,  2)   DRY( 19,  3)   DRY( 19,  4)   DRY( 19,  5)   
    DRY( 19,  6)   DRY( 19,  7)   DRY( 19,  8)   DRY( 19,  9)   DRY( 19, 10)   
    DRY( 19, 11)   DRY( 19, 12)   DRY( 19, 13)   DRY( 19, 14)   DRY( 19, 15)   
    DRY( 19, 16)   DRY( 19, 17)   DRY( 19, 18)   DRY( 19, 19)   DRY( 19, 20)   
    DRY( 19, 21)   DRY( 19, 22)   DRY( 19, 23)   DRY( 19, 24)   DRY( 19, 25)   
    DRY( 19, 26)   DRY( 19, 27)   DRY( 19, 28)   DRY( 19, 29)   DRY( 19, 30)   
    DRY( 19, 31)   DRY( 19, 32)   DRY( 19, 33)   DRY( 19, 34)   DRY( 19, 35)   
    DRY( 19, 36)   DRY( 19, 37)   DRY( 19, 38)   DRY( 19, 39)   DRY( 19, 40)   
    DRY( 20,  1)   DRY( 20,  2)   DRY( 20,  3)   DRY( 20,  4)   DRY( 20,  5)   
    DRY( 20,  6)   DRY( 20,  7)   DRY( 20,  8)   DRY( 20,  9)   DRY( 20, 10)   
    DRY( 20, 11)   DRY( 20, 12)   DRY( 20, 13)   DRY( 20, 14)   DRY( 20, 15)   
    DRY( 20, 16)   DRY( 20, 17)   DRY( 20, 18)   DRY( 20, 19)   DRY( 20, 20)   
    DRY( 20, 21)   DRY( 20, 22)   DRY( 20, 23)   DRY( 20, 24)   DRY( 20, 25)   
    DRY( 20, 26)   DRY( 20, 27)   DRY( 20, 28)   DRY( 20, 29)   DRY( 20, 30)   
    DRY( 20, 31)   DRY( 20, 32)   DRY( 20, 33)   DRY( 20, 34)   DRY( 20, 35)   
    DRY( 20, 36)   DRY( 20, 37)   DRY( 20, 38)   DRY( 20, 39)   DRY( 20, 40)   
    DRY( 21,  1)   DRY( 21,  2)   DRY( 21,  3)   DRY( 21,  4)   DRY( 21,  5)   
    DRY( 21,  6)   DRY( 21,  7)   DRY( 21,  8)   DRY( 21,  9)   DRY( 21, 10)   
    DRY( 21, 11)   DRY( 21, 12)   DRY( 21, 13)   DRY( 21, 14)   DRY( 21, 15)   
    DRY( 21, 16)   DRY( 21, 17)   DRY( 21, 18)   DRY( 21, 19)   DRY( 21, 20)   
    DRY( 21, 21)   DRY( 21, 22)   DRY( 21, 23)   DRY( 21, 24)   DRY( 21, 25)   
    DRY( 21, 26)   DRY( 21, 27)   DRY( 21, 28)   DRY( 21, 29)   DRY( 21, 30)   
    DRY( 21, 31)   DRY( 21, 32)   DRY( 21, 33)   DRY( 21, 34)   DRY( 21, 35)   
    DRY( 21, 36)   DRY( 21, 37)   DRY( 21, 38)   DRY( 21, 39)   DRY( 21, 40)   
    DRY( 22,  1)   DRY( 22,  2)   DRY( 22,  3)   DRY( 22,  4)   DRY( 22,  5)   
    DRY( 22,  6)   DRY( 22,  7)   DRY( 22,  8)   DRY( 22,  9)   DRY( 22, 10)   
    DRY( 22, 11)   DRY( 22, 12)   DRY( 22, 13)   DRY( 22, 14)   DRY( 22, 15)   
    DRY( 22, 16)   DRY( 22, 17)   DRY( 22, 18)   DRY( 22, 19)   DRY( 22, 20)   
    DRY( 22, 21)   DRY( 22, 22)   DRY( 22, 23)   DRY( 22, 24)   DRY( 22, 25)   
    DRY( 22, 26)   DRY( 22, 27)   DRY( 22, 28)   DRY( 22, 29)   DRY( 22, 30)   
    DRY( 22, 31)   DRY( 22, 32)   DRY( 22, 33)   DRY( 22, 34)   DRY( 22, 35)   
    DRY( 22, 36)   DRY( 22, 37)   DRY( 22, 38)   DRY( 22, 39)   DRY( 22, 40)   
    DRY( 23,  1)   DRY( 23,  2)   DRY( 23,  3)   DRY( 23,  4)   DRY( 23,  5)   
    DRY( 23,  6)   DRY( 23,  7)   DRY( 23,  8)   DRY( 23,  9)   DRY( 23, 10)   
    DRY( 23, 11)   DRY( 23, 12)   DRY( 23, 13)   DRY( 23, 14)   DRY( 23, 15)   
    DRY( 23, 16)   DRY( 23, 17)   DRY( 23, 18)   DRY( 23, 19)   DRY( 23, 20)   
    DRY( 23, 21)   DRY( 23, 22)   DRY( 23, 23)   DRY( 23, 24)   DRY( 23, 25)   
    DRY( 23, 26)   DRY( 23, 27)   DRY( 23, 28)   DRY( 23, 29)   DRY( 23, 30)   
    DRY( 23, 31)   DRY( 23, 32)   DRY( 23, 33)   DRY( 23, 34)   DRY( 23, 35)   
    DRY( 23, 36)   DRY( 23, 37)   DRY( 23, 38)   DRY( 23, 39)   DRY( 23, 40)   
    DRY( 24,  1)   DRY( 24,  2)   DRY( 24,  3)   DRY( 24,  4)   DRY( 24,  5)   
    DRY( 24,  6)   DRY( 24,  7)   DRY( 24,  8)   DRY( 24,  9)   DRY( 24, 10)   
    DRY( 24, 11)   DRY( 24, 12)   DRY( 24, 13)   DRY( 24, 14)   DRY( 24, 15)   
    DRY( 24, 16)   DRY( 24, 17)   DRY( 24, 18)   DRY( 24, 19)   DRY( 24, 20)   
    DRY( 24, 21)   DRY( 24, 22)   DRY( 24, 23)   DRY( 24, 24)   DRY( 24, 25)   
    DRY( 24, 26)   DRY( 24, 27)   DRY( 24, 28)   DRY( 24, 29)   DRY( 24, 30)   
    DRY( 24, 31)   DRY( 24, 32)   DRY( 24, 33)   DRY( 24, 34)   DRY( 24, 35)   
    DRY( 24, 36)   DRY( 24, 37)   DRY( 24, 38)   DRY( 24, 39)   DRY( 24, 40)   
    DRY( 25,  1)   DRY( 25,  2)   DRY( 25,  3)   DRY( 25,  4)   DRY( 25,  5)   
    DRY( 25,  6)   DRY( 25,  7)   DRY( 25,  8)   DRY( 25,  9)   DRY( 25, 10)   
    DRY( 25, 11)   DRY( 25, 12)   DRY( 25, 13)   DRY( 25, 14)   DRY( 25, 15)   
    DRY( 25, 16)   DRY( 25, 17)   DRY( 25, 18)   DRY( 25, 19)   DRY( 25, 20)   
    DRY( 25, 21)   DRY( 25, 22)   DRY( 25, 23)   DRY( 25, 24)   DRY( 25, 25)   
    DRY( 25, 26)   DRY( 25, 27)   DRY( 25, 28)   DRY( 25, 29)   DRY( 25, 30)   
    DRY( 25, 31)   DRY( 25, 32)   DRY( 25, 33)   DRY( 25, 34)   DRY( 25, 35)   
    DRY( 25, 36)   DRY( 25, 37)   DRY( 25, 38)   DRY( 25, 39)   DRY( 25, 40)   
    DRY( 26,  1)   DRY( 26,  2)   DRY( 26,  3)   DRY( 26,  4)   DRY( 26,  5)   
    DRY( 26,  6)   DRY( 26,  7)   DRY( 26,  8)   DRY( 26,  9)   DRY( 26, 10)   
    DRY( 26, 11)   DRY( 26, 12)   DRY( 26, 13)   DRY( 26, 14)   DRY( 26, 15)   
    DRY( 26, 16)   DRY( 26, 17)   DRY( 26, 18)   DRY( 26, 19)   DRY( 26, 20)   
    DRY( 26, 21)   DRY( 26, 22)   DRY( 26, 23)   DRY( 26, 24)   DRY( 26, 25)   
    DRY( 26, 26)   DRY( 26, 27)   DRY( 26, 28)   DRY( 26, 29)   DRY( 26, 30)   
    DRY( 26, 31)   DRY( 26, 32)   DRY( 26, 33)   DRY( 26, 34)   DRY( 26, 35)   
    DRY( 26, 36)   DRY( 26, 37)   DRY( 26, 38)   DRY( 26, 39)   DRY( 26, 40)   
    DRY( 27,  1)   DRY( 27,  2)   DRY( 27,  3)   DRY( 27,  4)   DRY( 27,  5)   
    DRY( 27,  6)   DRY( 27,  7)   DRY( 27,  8)   DRY( 27,  9)   DRY( 27, 10)   
    DRY( 27, 11)   DRY( 27, 12)   DRY( 27, 13)   DRY( 27, 14)   DRY( 27, 15)   
    DRY( 27, 16)   DRY( 27, 17)   DRY( 27, 18)   DRY( 27, 19)   DRY( 27, 20)   
    DRY( 27, 21)   DRY( 27, 22)   DRY( 27, 23)   DRY( 27, 24)   DRY( 27, 25)   
    DRY( 27, 26)   DRY( 27, 27)   DRY( 27, 28)   DRY( 27, 29)   DRY( 27, 30)   
    DRY( 27, 31)   DRY( 27, 32)   DRY( 27, 33)   DRY( 27, 34)   DRY( 27, 35)   
    DRY( 27, 36)   DRY( 27, 37)   DRY( 27, 38)   DRY( 27, 39)   DRY( 27, 40)   
    DRY( 28,  1)   DRY( 28,  2)   DRY( 28,  3)   DRY( 28,  4)   DRY( 28,  5)   
    DRY( 28,  6)   DRY( 28,  7)   DRY( 28,  8)   DRY( 28,  9)   DRY( 28, 10)   
    DRY( 28, 11)   DRY( 28, 12)   DRY( 28, 13)   DRY( 28, 14)   DRY( 28, 15)   
    DRY( 28, 16)   DRY( 28, 17)   DRY( 28, 18)   DRY( 28, 19)   DRY( 28, 20)   
    DRY( 28, 21)   DRY( 28, 22)   DRY( 28, 23)   DRY( 28, 24)   DRY( 28, 25)   
    DRY( 28, 26)   DRY( 28, 27)   DRY( 28, 28)   DRY( 28, 29)   DRY( 28, 30)   
    DRY( 28, 31)   DRY( 28, 32)   DRY( 28, 33)   DRY( 28, 34)   DRY( 28, 35)   
    DRY( 28, 36)   DRY( 28, 37)   DRY( 28, 38)   DRY( 28, 39)   DRY( 28, 40)   
    DRY( 29,  1)   DRY( 29,  2)   DRY( 29,  3)   DRY( 29,  4)   DRY( 29,  5)   
    DRY( 29,  6)   DRY( 29,  7)   DRY( 29,  8)   DRY( 29,  9)   DRY( 29, 10)   
    DRY( 29, 11)   DRY( 29, 12)   DRY( 29, 13)   DRY( 29, 14)   DRY( 29, 15)   
    DRY( 29, 16)   DRY( 29, 17)   DRY( 29, 18)   DRY( 29, 19)   DRY( 29, 20)   
    DRY( 29, 21)   DRY( 29, 22)   DRY( 29, 23)   DRY( 29, 24)   DRY( 29, 25)   
    DRY( 29, 26)   DRY( 29, 27)   DRY( 29, 28)   DRY( 29, 29)   DRY( 29, 30)   
    DRY( 29, 31)   DRY( 29, 32)   DRY( 29, 33)   DRY( 29, 34)   DRY( 29, 35)   
    DRY( 29, 36)   DRY( 29, 37)   DRY( 29, 38)   DRY( 29, 39)   DRY( 29, 40)   
    DRY( 30,  1)   DRY( 30,  2)   DRY( 30,  3)   DRY( 30,  4)   DRY( 30,  5)   
    DRY( 30,  6)   DRY( 30,  7)   DRY( 30,  8)   DRY( 30,  9)   DRY( 30, 10)   
    DRY( 30, 11)   DRY( 30, 12)   DRY( 30, 13)   DRY( 30, 14)   DRY( 30, 15)   
    DRY( 30, 16)   DRY( 30, 17)   DRY( 30, 18)   DRY( 30, 19)   DRY( 30, 20)   
    DRY( 30, 21)   DRY( 30, 22)   DRY( 30, 23)   DRY( 30, 24)   DRY( 30, 25)   
    DRY( 30, 26)   DRY( 30, 27)   DRY( 30, 28)   DRY( 30, 29)   DRY( 30, 30)   
    DRY( 30, 31)   DRY( 30, 32)   DRY( 30, 33)   DRY( 30, 34)   DRY( 30, 35)   
    DRY( 30, 36)   DRY( 30, 37)   DRY( 30, 38)   DRY( 30, 39)   DRY( 30, 40)   
    DRY( 31,  1)   DRY( 31,  2)   DRY( 31,  3)   DRY( 31,  4)   DRY( 31,  5)   
    DRY( 31,  6)   DRY( 31,  7)   DRY( 31,  8)   DRY( 31,  9)   DRY( 31, 10)   
    DRY( 31, 11)   DRY( 31, 12)   DRY( 31, 13)   DRY( 31, 14)   DRY( 31, 15)   
    DRY( 31, 16)   DRY( 31, 17)   DRY( 31, 18)   DRY( 31, 19)   DRY( 31, 20)   
    DRY( 31, 21)   DRY( 31, 22)   DRY( 31, 23)   DRY( 31, 24)   DRY( 31, 25)   
    DRY( 31, 26)   DRY( 31, 27)   DRY( 31, 28)   DRY( 31, 29)   DRY( 31, 30)   
    DRY( 31, 31)   DRY( 31, 32)   DRY( 31, 33)   DRY( 31, 34)   DRY( 31, 35)   
    DRY( 31, 36)   DRY( 31, 37)   DRY( 31, 38)   DRY( 31, 39)   DRY( 31, 40)   
    DRY( 32,  1)   DRY( 32,  2)   DRY( 32,  3)   DRY( 32,  4)   DRY( 32,  5)   
    DRY( 32,  6)   DRY( 32,  7)   DRY( 32,  8)   DRY( 32,  9)   DRY( 32, 10)   
    DRY( 32, 11)   DRY( 32, 12)   DRY( 32, 13)   DRY( 32, 14)   DRY( 32, 15)   
    DRY( 32, 16)   DRY( 32, 17)   DRY( 32, 18)   DRY( 32, 19)   DRY( 32, 20)   
    DRY( 32, 21)   DRY( 32, 22)   DRY( 32, 23)   DRY( 32, 24)   DRY( 32, 25)   
    DRY( 32, 26)   DRY( 32, 27)   DRY( 32, 28)   DRY( 32, 29)   DRY( 32, 30)   
    DRY( 32, 31)   DRY( 32, 32)   DRY( 32, 33)   DRY( 32, 34)   DRY( 32, 35)   
    DRY( 32, 36)   DRY( 32, 37)   DRY( 32, 38)   DRY( 32, 39)   DRY( 32, 40)   
    DRY( 33,  1)   DRY( 33,  2)   DRY( 33,  3)   DRY( 33,  4)   DRY( 33,  5)   
    DRY( 33,  6)   DRY( 33,  7)   DRY( 33,  8)   DRY( 33,  9)   DRY( 33, 10)   
    DRY( 33, 11)   DRY( 33, 12)   DRY( 33, 13)   DRY( 33, 14)   DRY( 33, 15)   
    DRY( 33, 16)   DRY( 33, 17)   DRY( 33, 18)   DRY( 33, 19)   DRY( 33, 20)   
    DRY( 33, 21)   DRY( 33, 22)   DRY( 33, 23)   DRY( 33, 24)   DRY( 33, 25)   
    DRY( 33, 26)   DRY( 33, 27)   DRY( 33, 28)   DRY( 33, 29)   DRY( 33, 30)   
    DRY( 33, 31)   DRY( 33, 32)   DRY( 33, 33)   DRY( 33, 34)   DRY( 33, 35)   
    DRY( 33, 36)   DRY( 33, 37)   DRY( 33, 38)   DRY( 33, 39)   DRY( 33, 40)   
    DRY( 34,  1)   DRY( 34,  2)   DRY( 34,  3)   DRY( 34,  4)   DRY( 34,  5)   
    DRY( 34,  6)   DRY( 34,  7)   DRY( 34,  8)   DRY( 34,  9)   DRY( 34, 10)   
    DRY( 34, 11)   DRY( 34, 12)   DRY( 34, 13)   DRY( 34, 14)   DRY( 34, 15)   
    DRY( 34, 16)   DRY( 34, 17)   DRY( 34, 18)   DRY( 34, 19)   DRY( 34, 20)   
    DRY( 34, 21)   DRY( 34, 22)   DRY( 34, 23)   DRY( 34, 24)   DRY( 34, 25)   
    DRY( 34, 26)   DRY( 34, 27)   DRY( 34, 28)   DRY( 34, 29)   DRY( 34, 30)   
    DRY( 34, 31)   DRY( 34, 32)   DRY( 34, 33)   DRY( 34, 34)   DRY( 34, 35)   
    DRY( 34, 36)   DRY( 34, 37)   DRY( 34, 38)   DRY( 34, 39)   DRY( 34, 40)   
    DRY( 35,  1)   DRY( 35,  2)   DRY( 35,  3)   DRY( 35,  4)   DRY( 35,  5)   
    DRY( 35,  6)   DRY( 35,  7)   DRY( 35,  8)   DRY( 35,  9)   DRY( 35, 10)   
    DRY( 35, 11)   DRY( 35, 12)   DRY( 35, 13)   DRY( 35, 14)   DRY( 35, 15)   
    DRY( 35, 16)   DRY( 35, 17)   DRY( 35, 18)   DRY( 35, 19)   DRY( 35, 20)   
    DRY( 35, 21)   DRY( 35, 22)   DRY( 35, 23)   DRY( 35, 24)   DRY( 35, 25)   
    DRY( 35, 26)   DRY( 35, 27)   DRY( 35, 28)   DRY( 35, 29)   DRY( 35, 30)   
    DRY( 35, 31)   DRY( 35, 32)   DRY( 35, 33)   DRY( 35, 34)   DRY( 35, 35)   
    DRY( 35, 36)   DRY( 35, 37)   DRY( 35, 38)   DRY( 35, 39)   DRY( 35, 40)   
    DRY( 36,  1)   DRY( 36,  2)   DRY( 36,  3)   DRY( 36,  4)   DRY( 36,  5)   
    DRY( 36,  6)   DRY( 36,  7)   DRY( 36,  8)   DRY( 36,  9)   DRY( 36, 10)   
    DRY( 36, 11)   DRY( 36, 12)   DRY( 36, 13)   DRY( 36, 14)   DRY( 36, 15)   
    DRY( 36, 16)   DRY( 36, 17)   DRY( 36, 18)   DRY( 36, 19)   DRY( 36, 20)   
    DRY( 36, 21)   DRY( 36, 22)   DRY( 36, 23)   DRY( 36, 24)   DRY( 36, 25)   
    DRY( 36, 26)   DRY( 36, 27)   DRY( 36, 28)   DRY( 36, 29)   DRY( 36, 30)   
    DRY( 36, 31)   DRY( 36, 32)   DRY( 36, 33)   DRY( 36, 34)   DRY( 36, 35)   
    DRY( 36, 36)   DRY( 36, 37)   DRY( 36, 38)   DRY( 36, 39)   DRY( 36, 40)   
    DRY( 37,  1)   DRY( 37,  2)   DRY( 37,  3)   DRY( 37,  4)   DRY( 37,  5)   
    DRY( 37,  6)   DRY( 37,  7)   DRY( 37,  8)   DRY( 37,  9)   DRY( 37, 10)   
    DRY( 37, 11)   DRY( 37, 12)   DRY( 37, 13)   DRY( 37, 14)   DRY( 37, 15)   
    DRY( 37, 16)   DRY( 37, 17)   DRY( 37, 18)   DRY( 37, 19)   DRY( 37, 20)   
    DRY( 37, 21)   DRY( 37, 22)   DRY( 37, 23)   DRY( 37, 24)   DRY( 37, 25)   
    DRY( 37, 26)   DRY( 37, 27)   DRY( 37, 28)   DRY( 37, 29)   DRY( 37, 30)   
    DRY( 37, 31)   DRY( 37, 32)   DRY( 37, 33)   DRY( 37, 34)   DRY( 37, 35)   
    DRY( 37, 36)   DRY( 37, 37)   DRY( 37, 38)   DRY( 37, 39)   DRY( 37, 40)   
    DRY( 38,  1)   DRY( 38,  2)   DRY( 38,  3)   DRY( 38,  4)   DRY( 38,  5)   
    DRY( 38,  6)   DRY( 38,  7)   DRY( 38,  8)   DRY( 38,  9)   DRY( 38, 10)   
    DRY( 38, 11)   DRY( 38, 12)   DRY( 38, 13)   DRY( 38, 14)   DRY( 38, 15)   
    DRY( 38, 16)   DRY( 38, 17)   DRY( 38, 18)   DRY( 38, 19)   DRY( 38, 20)   
    DRY( 38, 21)   DRY( 38, 22)   DRY( 38, 23)   DRY( 38, 24)   DRY( 38, 25)   
    DRY( 38, 26)   DRY( 38, 27)   DRY( 38, 28)   DRY( 38, 29)   DRY( 38, 30)   
    DRY( 38, 31)   DRY( 38, 32)   DRY( 38, 33)   DRY( 38, 34)   DRY( 38, 35)   
    DRY( 38, 36)   DRY( 38, 37)   DRY( 38, 38)   DRY( 38, 39)   DRY( 38, 40)   
    DRY( 39,  1)   DRY( 39,  2)   DRY( 39,  3)   DRY( 39,  4)   DRY( 39,  5)   
    DRY( 39,  6)   DRY( 39,  7)   DRY( 39,  8)   DRY( 39,  9)   DRY( 39, 10)   
    DRY( 39, 11)   DRY( 39, 12)   DRY( 39, 13)   DRY( 39, 14)   DRY( 39, 15)   
    DRY( 39, 16)   DRY( 39, 17)   DRY( 39, 18)   DRY( 39, 19)   DRY( 39, 20)   
    DRY( 39, 21)   DRY( 39, 22)   DRY( 39, 23)   DRY( 39, 24)   DRY( 39, 25)   
    DRY( 39, 26)   DRY( 39, 27)   DRY( 39, 28)   DRY( 39, 29)   DRY( 39, 30)   
    DRY( 39, 31)   DRY( 39, 32)   DRY( 39, 33)   DRY( 39, 34)   DRY( 39, 35)   
    DRY( 39, 36)   DRY( 39, 37)   DRY( 39, 38)   DRY( 39, 39)   DRY( 39, 40)   
    DRY( 40,  1)   DRY( 40,  2)   DRY( 40,  3)   DRY( 40,  4)   DRY( 40,  5)   
    DRY( 40,  6)   DRY( 40,  7)   DRY( 40,  8)   DRY( 40,  9)   DRY( 40, 10)   
    DRY( 40, 11)   DRY( 40, 12)   DRY( 40, 13)   DRY( 40, 14)   DRY( 40, 15)   
    DRY( 40, 16)   DRY( 40, 17)   DRY( 40, 18)   DRY( 40, 19)   DRY( 40, 20)   
    DRY( 40, 21)   DRY( 40, 22)   DRY( 40, 23)   DRY( 40, 24)   DRY( 40, 25)   
    DRY( 40, 26)   DRY( 40, 27)   DRY( 40, 28)   DRY( 40, 29)   DRY( 40, 30)   
    DRY( 40, 31)   DRY( 40, 32)   DRY( 40, 33)   DRY( 40, 34)   DRY( 40, 35)   
    DRY( 40, 36)   DRY( 40, 37)   DRY( 40, 38)   DRY( 40, 39)   DRY( 40, 40)   

 CELL CONVERSIONS FOR ITER.=  1  LAYER=  9  STEP=  1  PERIOD=   1   (ROW,COL)
    DRY(  1,  1)   DRY(  1,  2)   DRY(  1,  3)   DRY(  1,  4)   DRY(  1,  5)   
    DRY(  1,  6)   DRY(  1,  7)   DRY(  1,  8)   DRY(  1,  9)   DRY(  1, 10)   
    DRY(  1, 11)   DRY(  1, 12)   DRY(  1, 13)   DRY(  1, 14)   DRY(  1, 15)   
    DRY(  1, 16)   DRY(  1, 17)   DRY(  1, 18)   DRY(  1, 19)   DRY(  1, 20)   
    DRY(  1, 21)   DRY(  1, 22)   DRY(  1, 23)   DRY(  1, 24)   DRY(  1, 25)   
    DRY(  1, 26)   DRY(  1, 27)   DRY(  1, 28)   DRY(  1, 29)   DRY(  1, 30)   
    DRY(  1, 31)   DRY(  1, 32)   DRY(  1, 33)   DRY(  1, 34)   DRY(  1, 35)   
    DRY(  1, 36)   DRY(  1, 37)   DRY(  1, 38)   DRY(  1, 39)   DRY(  1, 40)   
    DRY(  2,  1)   DRY(  2,  2)   DRY(  2,  3)   DRY(  2,  4)   DRY(  2,  5)   
    DRY(  2,  6)   DRY(  2,  7)   DRY(  2,  8)   DRY(  2,  9)   DRY(  2, 10)   
    DRY(  2, 11)   DRY(  2, 12)   DRY(  2, 13)   DRY(  2, 14)   DRY(  2, 15)   
    DRY(  2, 16)   DRY(  2, 17)   DRY(  2, 18)   DRY(  2, 19)   DRY(  2, 20)   
    DRY(  2, 21)   DRY(  2, 22)   DRY(  2, 23)   DRY(  2, 24)   DRY(  2, 25)   
    DRY(  2, 26)   DRY(  2, 27)   DRY(  2, 28)   DRY(  2, 29)   DRY(  2, 30)   
    DRY(  2, 31)   DRY(  2, 32)   DRY(  2, 33)   DRY(  2, 34)   DRY(  2, 35)   
    DRY(  2, 36)   DRY(  2, 37)   DRY(  2, 38)   DRY(  2, 39)   DRY(  2, 40)   
    DRY(  3,  1)   DRY(  3,  2)   DRY(  3,  3)   DRY(  3,  4)   DRY(  3,  5)   
    DRY(  3,  6)   DRY(  3,  7)   DRY(  3,  8)   DRY(  3,  9)   DRY(  3, 10)   
    DRY(  3, 11)   DRY(  3, 12)   DRY(  3, 13)   DRY(  3, 14)   DRY(  3, 15)   
    DRY(  3, 16)   DRY(  3, 17)   DRY(  3, 18)   DRY(  3, 19)   DRY(  3, 20)   
    DRY(  3, 21)   DRY(  3, 22)   DRY(  3, 23)   DRY(  3, 24)   DRY(  3, 25)   
    DRY(  3, 26)   DRY(  3, 27)   DRY(  3, 28)   DRY(  3, 29)   DRY(  3, 30)   
    DRY(  3, 31)   DRY(  3, 32)   DRY(  3, 33)   DRY(  3, 34)   DRY(  3, 35)   
    DRY(  3, 36)   DRY(  3, 37)   DRY(  3, 38)   DRY(  3, 39)   DRY(  3, 40)   
    DRY(  4,  1)   DRY(  4,  2)   DRY(  4,  3)   DRY(  4,  4)   DRY(  4,  5)   
    DRY(  4,  6)   DRY(  4,  7)   DRY(  4,  8)   DRY(  4,  9)   DRY(  4, 10)   
    DRY(  4, 11)   DRY(  4, 12)   DRY(  4, 13)   DRY(  4, 14)   DRY(  4, 15)   
    DRY(  4, 16)   DRY(  4, 17)   DRY(  4, 18)   DRY(  4, 19)   DRY(  4, 20)   
    DRY(  4, 21)   DRY(  4, 22)   DRY(  4, 23)   DRY(  4, 24)   DRY(  4, 25)   
    DRY(  4, 26)   DRY(  4, 27)   DRY(  4, 28)   DRY(  4, 29)   DRY(  4, 30)   
    DRY(  4, 31)   DRY(  4, 32)   DRY(  4, 33)   DRY(  4, 34)   DRY(  4, 35)   
    DRY(  4, 36)   DRY(  4, 37)   DRY(  4, 38)   DRY(  4, 39)   DRY(  4, 40)   
    DRY(  5,  1)   DRY(  5,  2)   DRY(  5,  3)   DRY(  5,  4)   DRY(  5,  5)   
    DRY(  5,  6)   DRY(  5,  7)   DRY(  5,  8)   DRY(  5,  9)   DRY(  5, 10)   
    DRY(  5, 11)   DRY(  5, 12)   DRY(  5, 13)   DRY(  5, 14)   DRY(  5, 15)   
    DRY(  5, 16)   DRY(  5, 17)   DRY(  5, 18)   DRY(  5, 19)   DRY(  5, 20)   
    DRY(  5, 21)   DRY(  5, 22)   DRY(  5, 23)   DRY(  5, 24)   DRY(  5, 25)   
    DRY(  5, 26)   DRY(  5, 27)   DRY(  5, 28)   DRY(  5, 29)   DRY(  5, 30)   
    DRY(  5, 31)   DRY(  5, 32)   DRY(  5, 33)   DRY(  5, 34)   DRY(  5, 35)   
    DRY(  5, 36)   DRY(  5, 37)   DRY(  5, 38)   DRY(  5, 39)   DRY(  5, 40)   
    DRY(  6,  1)   DRY(  6,  2)   DRY(  6,  3)   DRY(  6,  4)   DRY(  6,  5)   
    DRY(  6,  6)   DRY(  6,  7)   DRY(  6,  8)   DRY(  6,  9)   DRY(  6, 10)   
    DRY(  6, 11)   DRY(  6, 12)   DRY(  6, 13)   DRY(  6, 14)   DRY(  6, 15)   
    DRY(  6, 16)   DRY(  6, 17)   DRY(  6, 18)   DRY(  6, 19)   DRY(  6, 20)   
    DRY(  6, 21)   DRY(  6, 22)   DRY(  6, 23)   DRY(  6, 24)   DRY(  6, 25)   
    DRY(  6, 26)   DRY(  6, 27)   DRY(  6, 28)   DRY(  6, 29)   DRY(  6, 30)   
    DRY(  6, 31)   DRY(  6, 32)   DRY(  6, 33)   DRY(  6, 34)   DRY(  6, 35)   
    DRY(  6, 36)   DRY(  6, 37)   DRY(  6, 38)   DRY(  6, 39)   DRY(  6, 40)   
    DRY(  7,  1)   DRY(  7,  2)   DRY(  7,  3)   DRY(  7,  4)   DRY(  7,  5)   
    DRY(  7,  6)   DRY(  7,  7)   DRY(  7,  8)   DRY(  7,  9)   DRY(  7, 10)   
    DRY(  7, 11)   DRY(  7, 12)   DRY(  7, 13)   DRY(  7, 14)   DRY(  7, 15)   
    DRY(  7, 16)   DRY(  7, 17)   DRY(  7, 18)   DRY(  7, 19)   DRY(  7, 20)   
    DRY(  7, 21)   DRY(  7, 22)   DRY(  7, 23)   DRY(  7, 24)   DRY(  7, 25)   
    DRY(  7, 26)   DRY(  7, 27)   DRY(  7, 28)   DRY(  7, 29)   DRY(  7, 30)   
    DRY(  7, 31)   DRY(  7, 32)   DRY(  7, 33)   DRY(  7, 34)   DRY(  7, 35)   
    DRY(  7, 36)   DRY(  7, 37)   DRY(  7, 38)   DRY(  7, 39)   DRY(  7, 40)   
    DRY(  8,  1)   DRY(  8,  2)   DRY(  8,  3)   DRY(  8,  4)   DRY(  8,  5)   
    DRY(  8,  6)   DRY(  8,  7)   DRY(  8,  8)   DRY(  8,  9)   DRY(  8, 10)   
    DRY(  8, 11)   DRY(  8, 12)   DRY(  8, 13)   DRY(  8, 14)   DRY(  8, 15)   
    DRY(  8, 16)   DRY(  8, 17)   DRY(  8, 18)   DRY(  8, 19)   DRY(  8, 20)   
    DRY(  8, 21)   DRY(  8, 22)   DRY(  8, 23)   DRY(  8, 24)   DRY(  8, 25)   
    DRY(  8, 26)   DRY(  8, 27)   DRY(  8, 28)   DRY(  8, 29)   DRY(  8, 30)   
    DRY(  8, 31)   DRY(  8, 32)   DRY(  8, 33)   DRY(  8, 34)   DRY(  8, 35)   
    DRY(  8, 36)   DRY(  8, 37)   DRY(  8, 38)   DRY(  8, 39)   DRY(  8, 40)   
    DRY(  9,  1)   DRY(  9,  2)   DRY(  9,  3)   DRY(  9,  4)   DRY(  9,  5)   
    DRY(  9,  6)   DRY(  9,  7)   DRY(  9,  8)   DRY(  9,  9)   DRY(  9, 10)   
    DRY(  9, 11)   DRY(  9, 12)   DRY(  9, 13)   DRY(  9, 14)   DRY(  9, 15)   
    DRY(  9, 16)   DRY(  9, 17)   DRY(  9, 18)   DRY(  9, 19)   DRY(  9, 20)   
    DRY(  9, 21)   DRY(  9, 22)   DRY(  9, 23)   DRY(  9, 24)   DRY(  9, 25)   
    DRY(  9, 26)   DRY(  9, 27)   DRY(  9, 28)   DRY(  9, 29)   DRY(  9, 30)   
    DRY(  9, 31)   DRY(  9, 32)   DRY(  9, 33)   DRY(  9, 34)   DRY(  9, 35)   
    DRY(  9, 36)   DRY(  9, 37)   DRY(  9, 38)   DRY(  9, 39)   DRY(  9, 40)   
    DRY( 10,  1)   DRY( 10,  2)   DRY( 10,  3)   DRY( 10,  4)   DRY( 10,  5)   
    DRY( 10,  6)   DRY( 10,  7)   DRY( 10,  8)   DRY( 10,  9)   DRY( 10, 10)   
    DRY( 10, 11)   DRY( 10, 12)   DRY( 10, 13)   DRY( 10, 14)   DRY( 10, 15)   
    DRY( 10, 16)   DRY( 10, 17)   DRY( 10, 18)   DRY( 10, 19)   DRY( 10, 20)   
    DRY( 10, 21)   DRY( 10, 22)   DRY( 10, 23)   DRY( 10, 24)   DRY( 10, 25)   
    DRY( 10, 26)   DRY( 10, 27)   DRY( 10, 28)   DRY( 10, 29)   DRY( 10, 30)   
    DRY( 10, 31)   DRY( 10, 32)   DRY( 10, 33)   DRY( 10, 34)   DRY( 10, 35)   
    DRY( 10, 36)   DRY( 10, 37)   DRY( 10, 38)   DRY( 10, 39)   DRY( 10, 40)   
    DRY( 11,  1)   DRY( 11,  2)   DRY( 11,  3)   DRY( 11,  4)   DRY( 11,  5)   
    DRY( 11,  6)   DRY( 11,  7)   DRY( 11,  8)   DRY( 11,  9)   DRY( 11, 10)   
    DRY( 11, 11)   DRY( 11, 12)   DRY( 11, 13)   DRY( 11, 14)   DRY( 11, 15)   
    DRY( 11, 16)   DRY( 11, 17)   DRY( 11, 18)   DRY( 11, 19)   DRY( 11, 20)   
    DRY( 11, 21)   DRY( 11, 22)   DRY( 11, 23)   DRY( 11, 24)   DRY( 11, 25)   
    DRY( 11, 26)   DRY( 11, 27)   DRY( 11, 28)   DRY( 11, 29)   DRY( 11, 30)   
    DRY( 11, 31)   DRY( 11, 32)   DRY( 11, 33)   DRY( 11, 34)   DRY( 11, 35)   
    DRY( 11, 36)   DRY( 11, 37)   DRY( 11, 38)   DRY( 11, 39)   DRY( 11, 40)   
    DRY( 12,  1)   DRY( 12,  2)   DRY( 12,  3)   DRY( 12,  4)   DRY( 12,  5)   
    DRY( 12,  6)   DRY( 12,  7)   DRY( 12,  8)   DRY( 12,  9)   DRY( 12, 10)   
    DRY( 12, 11)   DRY( 12, 12)   DRY( 12, 13)   DRY( 12, 14)   DRY( 12, 15)   
    DRY( 12, 16)   DRY( 12, 17)   DRY( 12, 18)   DRY( 12, 19)   DRY( 12, 20)   
    DRY( 12, 21)   DRY( 12, 22)   DRY( 12, 23)   DRY( 12, 24)   DRY( 12, 25)   
    DRY( 12, 26)   DRY( 12, 27)   DRY( 12, 28)   DRY( 12, 29)   DRY( 12, 30)   
    DRY( 12, 31)   DRY( 12, 32)   DRY( 12, 33)   DRY( 12, 34)   DRY( 12, 35)   
    DRY( 12, 36)   DRY( 12, 37)   DRY( 12, 38)   DRY( 12, 39)   DRY( 12, 40)   
    DRY( 13,  1)   DRY( 13,  2)   DRY( 13,  3)   DRY( 13,  4)   DRY( 13,  5)   
    DRY( 13,  6)   DRY( 13,  7)   DRY( 13,  8)   DRY( 13,  9)   DRY( 13, 10)   
    DRY( 13, 11)   DRY( 13, 12)   DRY( 13, 13)   DRY( 13, 14)   DRY( 13, 15)   
    DRY( 13, 16)   DRY( 13, 17)   DRY( 13, 18)   DRY( 13, 19)   DRY( 13, 20)   
    DRY( 13, 21)   DRY( 13, 22)   DRY( 13, 23)   DRY( 13, 24)   DRY( 13, 25)   
    DRY( 13, 26)   DRY( 13, 27)   DRY( 13, 28)   DRY( 13, 29)   DRY( 13, 30)   
    DRY( 13, 31)   DRY( 13, 32)   DRY( 13, 33)   DRY( 13, 34)   DRY( 13, 35)   
    DRY( 13, 36)   DRY( 13, 37)   DRY( 13, 38)   DRY( 13, 39)   DRY( 13, 40)   
    DRY( 14,  1)   DRY( 14,  2)   DRY( 14,  3)   DRY( 14,  4)   DRY( 14,  5)   
    DRY( 14,  6)   DRY( 14,  7)   DRY( 14,  8)   DRY( 14,  9)   DRY( 14, 10)   
    DRY( 14, 11)   DRY( 14, 12)   DRY( 14, 13)   DRY( 14, 14)   DRY( 14, 15)   
    DRY( 14, 16)   DRY( 14, 17)   DRY( 14, 18)   DRY( 14, 19)   DRY( 14, 20)   
    DRY( 14, 21)   DRY( 14, 22)   DRY( 14, 23)   DRY( 14, 24)   DRY( 14, 25)   
    DRY( 14, 26)   DRY( 14, 27)   DRY( 14, 28)   DRY( 14, 29)   DRY( 14, 30)   
    DRY( 14, 31)   DRY( 14, 32)   DRY( 14, 33)   DRY( 14, 34)   DRY( 14, 35)   
    DRY( 14, 36)   DRY( 14, 37)   DRY( 14, 38)   DRY( 14, 39)   DRY( 14, 40)   
    DRY( 15,  1)   DRY( 15,  2)   DRY( 15,  3)   DRY( 15,  4)   DRY( 15,  5)   
    DRY( 15,  6)   DRY( 15,  7)   DRY( 15,  8)   DRY( 15,  9)   DRY( 15, 10)   
    DRY( 15, 11)   DRY( 15, 12)   DRY( 15, 13)   DRY( 15, 14)   DRY( 15, 15)   
    DRY( 15, 16)   DRY( 15, 17)   DRY( 15, 18)   DRY( 15, 19)   DRY( 15, 20)   
    DRY( 15, 21)   DRY( 15, 22)   DRY( 15, 23)   DRY( 15, 24)   DRY( 15, 25)   
    DRY( 15, 26)   DRY( 15, 27)   DRY( 15, 28)   DRY( 15, 29)   DRY( 15, 30)   
    DRY( 15, 31)   DRY( 15, 32)   DRY( 15, 33)   DRY( 15, 34)   DRY( 15, 35)   
    DRY( 15, 36)   DRY( 15, 37)   DRY( 15, 38)   DRY( 15, 39)   DRY( 15, 40)   
    DRY( 16,  1)   DRY( 16,  2)   DRY( 16,  3)   DRY( 16,  4)   DRY( 16,  5)   
    DRY( 16,  6)   DRY( 16,  7)   DRY( 16,  8)   DRY( 16,  9)   DRY( 16, 10)   
    DRY( 16, 11)   DRY( 16, 12)   DRY( 16, 13)   DRY( 16, 14)   DRY( 16, 15)   
    DRY( 16, 16)   DRY( 16, 17)   DRY( 16, 18)   DRY( 16, 19)   DRY( 16, 20)   
    DRY( 16, 21)   DRY( 16, 22)   DRY( 16, 23)   DRY( 16, 24)   DRY( 16, 25)   
    DRY( 16, 26)   DRY( 16, 27)   DRY( 16, 28)   DRY( 16, 29)   DRY( 16, 30)   
    DRY( 16, 31)   DRY( 16, 32)   DRY( 16, 33)   DRY( 16, 34)   DRY( 16, 35)   
    DRY( 16, 36)   DRY( 16, 37)   DRY( 16, 38)   DRY( 16, 39)   DRY( 16, 40)   
    DRY( 17,  1)   DRY( 17,  2)   DRY( 17,  3)   DRY( 17,  4)   DRY( 17,  5)   
    DRY( 17,  6)   DRY( 17,  7)   DRY( 17,  8)   DRY( 17,  9)   DRY( 17, 10)   
    DRY( 17, 11)   DRY( 17, 12)   DRY( 17, 13)   DRY( 17, 14)   DRY( 17, 15)   
    DRY( 17, 16)   DRY( 17, 17)   DRY( 17, 18)   DRY( 17, 19)   DRY( 17, 20)   
    DRY( 17, 21)   DRY( 17, 22)   DRY( 17, 23)   DRY( 17, 24)   DRY( 17, 25)   
    DRY( 17, 26)   DRY( 17, 27)   DRY( 17, 28)   DRY( 17, 29)   DRY( 17, 30)   
    DRY( 17, 31)   DRY( 17, 32)   DRY( 17, 33)   DRY( 17, 34)   DRY( 17, 35)   
    DRY( 17, 36)   DRY( 17, 37)   DRY( 17, 38)   DRY( 17, 39)   DRY( 17, 40)   
    DRY( 18,  1)   DRY( 18,  2)   DRY( 18,  3)   DRY( 18,  4)   DRY( 18,  5)   
    DRY( 18,  6)   DRY( 18,  7)   DRY( 18,  8)   DRY( 18,  9)   DRY( 18, 10)   
    DRY( 18, 11)   DRY( 18, 12)   DRY( 18, 13)   DRY( 18, 14)   DRY( 18, 15)   
    DRY( 18, 16)   DRY( 18, 17)   DRY( 18, 18)   DRY( 18, 19)   DRY( 18, 20)   
    DRY( 18, 21)   DRY( 18, 22)   DRY( 18, 23)   DRY( 18, 24)   DRY( 18, 25)   
    DRY( 18, 26)   DRY( 18, 27)   DRY( 18, 28)   DRY( 18, 29)   DRY( 18, 30)   
    DRY( 18, 31)   DRY( 18, 32)   DRY( 18, 33)   DRY( 18, 34)   DRY( 18, 35)   
    DRY( 18, 36)   DRY( 18, 37)   DRY( 18, 38)   DRY( 18, 39)   DRY( 18, 40)   
    DRY( 19,  1)   DRY( 19,  2)   DRY( 19,  3)   DRY( 19,  4)   DRY( 19,  5)   
    DRY( 19,  6)   DRY( 19,  7)   DRY( 19,  8)   DRY( 19,  9)   DRY( 19, 10)   
    DRY( 19, 11)   DRY( 19, 12)   DRY( 19, 13)   DRY( 19, 14)   DRY( 19, 15)   
    DRY( 19, 16)   DRY( 19, 17)   DRY( 19, 18)   DRY( 19, 19)   DRY( 19, 20)   
    DRY( 19, 21)   DRY( 19, 22)   DRY( 19, 23)   DRY( 19, 24)   DRY( 19, 25)   
    DRY( 19, 26)   DRY( 19, 27)   DRY( 19, 28)   DRY( 19, 29)   DRY( 19, 30)   
    DRY( 19, 31)   DRY( 19, 32)   DRY( 19, 33)   DRY( 19, 34)   DRY( 19, 35)   
    DRY( 19, 36)   DRY( 19, 37)   DRY( 19, 38)   DRY( 19, 39)   DRY( 19, 40)   
    DRY( 20,  1)   DRY( 20,  2)   DRY( 20,  3)   DRY( 20,  4)   DRY( 20,  5)   
    DRY( 20,  6)   DRY( 20,  7)   DRY( 20,  8)   DRY( 20,  9)   DRY( 20, 10)   
    DRY( 20, 11)   DRY( 20, 12)   DRY( 20, 13)   DRY( 20, 14)   DRY( 20, 15)   
    DRY( 20, 16)   DRY( 20, 17)   DRY( 20, 18)   DRY( 20, 19)   DRY( 20, 20)   
    DRY( 20, 21)   DRY( 20, 22)   DRY( 20, 23)   DRY( 20, 24)   DRY( 20, 25)   
    DRY( 20, 26)   DRY( 20, 27)   DRY( 20, 28)   DRY( 20, 29)   DRY( 20, 30)   
    DRY( 20, 31)   DRY( 20, 32)   DRY( 20, 33)   DRY( 20, 34)   DRY( 20, 35)   
    DRY( 20, 36)   DRY( 20, 37)   DRY( 20, 38)   DRY( 20, 39)   DRY( 20, 40)   
    DRY( 21,  1)   DRY( 21,  2)   DRY( 21,  3)   DRY( 21,  4)   DRY( 21,  5)   
    DRY( 21,  6)   DRY( 21,  7)   DRY( 21,  8)   DRY( 21,  9)   DRY( 21, 10)   
    DRY( 21, 11)   DRY( 21, 12)   DRY( 21, 13)   DRY( 21, 14)   DRY( 21, 15)   
    DRY( 21, 16)   DRY( 21, 17)   DRY( 21, 18)   DRY( 21, 19)   DRY( 21, 20)   
    DRY( 21, 21)   DRY( 21, 22)   DRY( 21, 23)   DRY( 21, 24)   DRY( 21, 25)   
    DRY( 21, 26)   DRY( 21, 27)   DRY( 21, 28)   DRY( 21, 29)   DRY( 21, 30)   
    DRY( 21, 31)   DRY( 21, 32)   DRY( 21, 33)   DRY( 21, 34)   DRY( 21, 35)   
    DRY( 21, 36)   DRY( 21, 37)   DRY( 21, 38)   DRY( 21, 39)   DRY( 21, 40)   
    DRY( 22,  1)   DRY( 22,  2)   DRY( 22,  3)   DRY( 22,  4)   DRY( 22,  5)   
    DRY( 22,  6)   DRY( 22,  7)   DRY( 22,  8)   DRY( 22,  9)   DRY( 22, 10)   
    DRY( 22, 11)   DRY( 22, 12)   DRY( 22, 13)   DRY( 22, 14)   DRY( 22, 15)   
    DRY( 22, 16)   DRY( 22, 17)   DRY( 22, 18)   DRY( 22, 19)   DRY( 22, 20)   
    DRY( 22, 21)   DRY( 22, 22)   DRY( 22, 23)   DRY( 22, 24)   DRY( 22, 25)   
    DRY( 22, 26)   DRY( 22, 27)   DRY( 22, 28)   DRY( 22, 29)   DRY( 22, 30)   
    DRY( 22, 31)   DRY( 22, 32)   DRY( 22, 33)   DRY( 22, 34)   DRY( 22, 35)   
    DRY( 22, 36)   DRY( 22, 37)   DRY( 22, 38)   DRY( 22, 39)   DRY( 22, 40)   
    DRY( 23,  1)   DRY( 23,  2)   DRY( 23,  3)   DRY( 23,  4)   DRY( 23,  5)   
    DRY( 23,  6)   DRY( 23,  7)   DRY( 23,  8)   DRY( 23,  9)   DRY( 23, 10)   
    DRY( 23, 11)   DRY( 23, 12)   DRY( 23, 13)   DRY( 23, 14)   DRY( 23, 15)   
    DRY( 23, 16)   DRY( 23, 17)   DRY( 23, 18)   DRY( 23, 19)   DRY( 23, 20)   
    DRY( 23, 21)   DRY( 23, 22)   DRY( 23, 23)   DRY( 23, 24)   DRY( 23, 25)   
    DRY( 23, 26)   DRY( 23, 27)   DRY( 23, 28)   DRY( 23, 29)   DRY( 23, 30)   
    DRY( 23, 31)   DRY( 23, 32)   DRY( 23, 33)   DRY( 23, 34)   DRY( 23, 35)   
    DRY( 23, 36)   DRY( 23, 37)   DRY( 23, 38)   DRY( 23, 39)   DRY( 23, 40)   
    DRY( 24,  1)   DRY( 24,  2)   DRY( 24,  3)   DRY( 24,  4)   DRY( 24,  5)   
    DRY( 24,  6)   DRY( 24,  7)   DRY( 24,  8)   DRY( 24,  9)   DRY( 24, 10)   
    DRY( 24, 11)   DRY( 24, 12)   DRY( 24, 13)   DRY( 24, 14)   DRY( 24, 15)   
    DRY( 24, 16)   DRY( 24, 17)   DRY( 24, 18)   DRY( 24, 19)   DRY( 24, 20)   
    DRY( 24, 21)   DRY( 24, 22)   DRY( 24, 23)   DRY( 24, 24)   DRY( 24, 25)   
    DRY( 24, 26)   DRY( 24, 27)   DRY( 24, 28)   DRY( 24, 29)   DRY( 24, 30)   
    DRY( 24, 31)   DRY( 24, 32)   DRY( 24, 33)   DRY( 24, 34)   DRY( 24, 35)   
    DRY( 24, 36)   DRY( 24, 37)   DRY( 24, 38)   DRY( 24, 39)   DRY( 24, 40)   
    DRY( 25,  1)   DRY( 25,  2)   DRY( 25,  3)   DRY( 25,  4)   DRY( 25,  5)   
    DRY( 25,  6)   DRY( 25,  7)   DRY( 25,  8)   DRY( 25,  9)   DRY( 25, 10)   
    DRY( 25, 11)   DRY( 25, 12)   DRY( 25, 13)   DRY( 25, 14)   DRY( 25, 15)   
    DRY( 25, 16)   DRY( 25, 17)   DRY( 25, 18)   DRY( 25, 19)   DRY( 25, 20)   
    DRY( 25, 21)   DRY( 25, 22)   DRY( 25, 23)   DRY( 25, 24)   DRY( 25, 25)   
    DRY( 25, 26)   DRY( 25, 27)   DRY( 25, 28)   DRY( 25, 29)   DRY( 25, 30)   
    DRY( 25, 31)   DRY( 25, 32)   DRY( 25, 33)   DRY( 25, 34)   DRY( 25, 35)   
    DRY( 25, 36)   DRY( 25, 37)   DRY( 25, 38)   DRY( 25, 39)   DRY( 25, 40)   
    DRY( 26,  1)   DRY( 26,  2)   DRY( 26,  3)   DRY( 26,  4)   DRY( 26,  5)   
    DRY( 26,  6)   DRY( 26,  7)   DRY( 26,  8)   DRY( 26,  9)   DRY( 26, 10)   
    DRY( 26, 11)   DRY( 26, 12)   DRY( 26, 13)   DRY( 26, 14)   DRY( 26, 15)   
    DRY( 26, 16)   DRY( 26, 17)   DRY( 26, 18)   DRY( 26, 19)   DRY( 26, 20)   
    DRY( 26, 21)   DRY( 26, 22)   DRY( 26, 23)   DRY( 26, 24)   DRY( 26, 25)   
    DRY( 26, 26)   DRY( 26, 27)   DRY( 26, 28)   DRY( 26, 29)   DRY( 26, 30)   
    DRY( 26, 31)   DRY( 26, 32)   DRY( 26, 33)   DRY( 26, 34)   DRY( 26, 35)   
    DRY( 26, 36)   DRY( 26, 37)   DRY( 26, 38)   DRY( 26, 39)   DRY( 26, 40)   
    DRY( 27,  1)   DRY( 27,  2)   DRY( 27,  3)   DRY( 27,  4)   DRY( 27,  5)   
    DRY( 27,  6)   DRY( 27,  7)   DRY( 27,  8)   DRY( 27,  9)   DRY( 27, 10)   
    DRY( 27, 11)   DRY( 27, 12)   DRY( 27, 13)   DRY( 27, 14)   DRY( 27, 15)   
    DRY( 27, 16)   DRY( 27, 17)   DRY( 27, 18)   DRY( 27, 19)   DRY( 27, 20)   
    DRY( 27, 21)   DRY( 27, 22)   DRY( 27, 23)   DRY( 27, 24)   DRY( 27, 25)   
    DRY( 27, 26)   DRY( 27, 27)   DRY( 27, 28)   DRY( 27, 29)   DRY( 27, 30)   
    DRY( 27, 31)   DRY( 27, 32)   DRY( 27, 33)   DRY( 27, 34)   DRY( 27, 35)   
    DRY( 27, 36)   DRY( 27, 37)   DRY( 27, 38)   DRY( 27, 39)   DRY( 27, 40)   
    DRY( 28,  1)   DRY( 28,  2)   DRY( 28,  3)   DRY( 28,  4)   DRY( 28,  5)   
    DRY( 28,  6)   DRY( 28,  7)   DRY( 28,  8)   DRY( 28,  9)   DRY( 28, 10)   
    DRY( 28, 11)   DRY( 28, 12)   DRY( 28, 13)   DRY( 28, 14)   DRY( 28, 15)   
    DRY( 28, 16)   DRY( 28, 17)   DRY( 28, 18)   DRY( 28, 19)   DRY( 28, 20)   
    DRY( 28, 21)   DRY( 28, 22)   DRY( 28, 23)   DRY( 28, 24)   DRY( 28, 25)   
    DRY( 28, 26)   DRY( 28, 27)   DRY( 28, 28)   DRY( 28, 29)   DRY( 28, 30)   
    DRY( 28, 31)   DRY( 28, 32)   DRY( 28, 33)   DRY( 28, 34)   DRY( 28, 35)   
    DRY( 28, 36)   DRY( 28, 37)   DRY( 28, 38)   DRY( 28, 39)   DRY( 28, 40)   
    DRY( 29,  1)   DRY( 29,  2)   DRY( 29,  3)   DRY( 29,  4)   DRY( 29,  5)   
    DRY( 29,  6)   DRY( 29,  7)   DRY( 29,  8)   DRY( 29,  9)   DRY( 29, 10)   
    DRY( 29, 11)   DRY( 29, 12)   DRY( 29, 13)   DRY( 29, 14)   DRY( 29, 15)   
    DRY( 29, 16)   DRY( 29, 17)   DRY( 29, 18)   DRY( 29, 19)   DRY( 29, 20)   
    DRY( 29, 21)   DRY( 29, 22)   DRY( 29, 23)   DRY( 29, 24)   DRY( 29, 25)   
    DRY( 29, 26)   DRY( 29, 27)   DRY( 29, 28)   DRY( 29, 29)   DRY( 29, 30)   
    DRY( 29, 31)   DRY( 29, 32)   DRY( 29, 33)   DRY( 29, 34)   DRY( 29, 35)   
    DRY( 29, 36)   DRY( 29, 37)   DRY( 29, 38)   DRY( 29, 39)   DRY( 29, 40)   
    DRY( 30,  1)   DRY( 30,  2)   DRY( 30,  3)   DRY( 30,  4)   DRY( 30,  5)   
    DRY( 30,  6)   DRY( 30,  7)   DRY( 30,  8)   DRY( 30,  9)   DRY( 30, 10)   
    DRY( 30, 11)   DRY( 30, 12)   DRY( 30, 13)   DRY( 30, 14)   DRY( 30, 15)   
    DRY( 30, 16)   DRY( 30, 17)   DRY( 30, 18)   DRY( 30, 19)   DRY( 30, 20)   
    DRY( 30, 21)   DRY( 30, 22)   DRY( 30, 23)   DRY( 30, 24)   DRY( 30, 25)   
    DRY( 30, 26)   DRY( 30, 27)   DRY( 30, 28)   DRY( 30, 29)   DRY( 30, 30)   
    DRY( 30, 31)   DRY( 30, 32)   DRY( 30, 33)   DRY( 30, 34)   DRY( 30, 35)   
    DRY( 30, 36)   DRY( 30, 37)   DRY( 30, 38)   DRY( 30, 39)   DRY( 30, 40)   
    DRY( 31,  1)   DRY( 31,  2)   DRY( 31,  3)   DRY( 31,  4)   DRY( 31,  5)   
    DRY( 31,  6)   DRY( 31,  7)   DRY( 31,  8)   DRY( 31,  9)   DRY( 31, 10)   
    DRY( 31, 11)   DRY( 31, 12)   DRY( 31, 13)   DRY( 31, 14)   DRY( 31, 15)   
    DRY( 31, 16)   DRY( 31, 17)   DRY( 31, 18)   DRY( 31, 19)   DRY( 31, 20)   
    DRY( 31, 21)   DRY( 31, 22)   DRY( 31, 23)   DRY( 31, 24)   DRY( 31, 25)   
    DRY( 31, 26)   DRY( 31, 27)   DRY( 31, 28)   DRY( 31, 29)   DRY( 31, 30)   
    DRY( 31, 31)   DRY( 31, 32)   DRY( 31, 33)   DRY( 31, 34)   DRY( 31, 35)   
    DRY( 31, 36)   DRY( 31, 37)   DRY( 31, 38)   DRY( 31, 39)   DRY( 31, 40)   
    DRY( 32,  1)   DRY( 32,  2)   DRY( 32,  3)   DRY( 32,  4)   DRY( 32,  5)   
    DRY( 32,  6)   DRY( 32,  7)   DRY( 32,  8)   DRY( 32,  9)   DRY( 32, 10)   
    DRY( 32, 11)   DRY( 32, 12)   DRY( 32, 13)   DRY( 32, 14)   DRY( 32, 15)   
    DRY( 32, 16)   DRY( 32, 17)   DRY( 32, 18)   DRY( 32, 19)   DRY( 32, 20)   
    DRY( 32, 21)   DRY( 32, 22)   DRY( 32, 23)   DRY( 32, 24)   DRY( 32, 25)   
    DRY( 32, 26)   DRY( 32, 27)   DRY( 32, 28)   DRY( 32, 29)   DRY( 32, 30)   
    DRY( 32, 31)   DRY( 32, 32)   DRY( 32, 33)   DRY( 32, 34)   DRY( 32, 35)   
    DRY( 32, 36)   DRY( 32, 37)   DRY( 32, 38)   DRY( 32, 39)   DRY( 32, 40)   
    DRY( 33,  1)   DRY( 33,  2)   DRY( 33,  3)   DRY( 33,  4)   DRY( 33,  5)   
    DRY( 33,  6)   DRY( 33,  7)   DRY( 33,  8)   DRY( 33,  9)   DRY( 33, 10)   
    DRY( 33, 11)   DRY( 33, 12)   DRY( 33, 13)   DRY( 33, 14)   DRY( 33, 15)   
    DRY( 33, 16)   DRY( 33, 17)   DRY( 33, 18)   DRY( 33, 19)   DRY( 33, 20)   
    DRY( 33, 21)   DRY( 33, 22)   DRY( 33, 23)   DRY( 33, 24)   DRY( 33, 25)   
    DRY( 33, 26)   DRY( 33, 27)   DRY( 33, 28)   DRY( 33, 29)   DRY( 33, 30)   
    DRY( 33, 31)   DRY( 33, 32)   DRY( 33, 33)   DRY( 33, 34)   DRY( 33, 35)   
    DRY( 33, 36)   DRY( 33, 37)   DRY( 33, 38)   DRY( 33, 39)   DRY( 33, 40)   
    DRY( 34,  1)   DRY( 34,  2)   DRY( 34,  3)   DRY( 34,  4)   DRY( 34,  5)   
    DRY( 34,  6)   DRY( 34,  7)   DRY( 34,  8)   DRY( 34,  9)   DRY( 34, 10)   
    DRY( 34, 11)   DRY( 34, 12)   DRY( 34, 13)   DRY( 34, 14)   DRY( 34, 15)   
    DRY( 34, 16)   DRY( 34, 17)   DRY( 34, 18)   DRY( 34, 19)   DRY( 34, 20)   
    DRY( 34, 21)   DRY( 34, 22)   DRY( 34, 23)   DRY( 34, 24)   DRY( 34, 25)   
    DRY( 34, 26)   DRY( 34, 27)   DRY( 34, 28)   DRY( 34, 29)   DRY( 34, 30)   
    DRY( 34, 31)   DRY( 34, 32)   DRY( 34, 33)   DRY( 34, 34)   DRY( 34, 35)   
    DRY( 34, 36)   DRY( 34, 37)   DRY( 34, 38)   DRY( 34, 39)   DRY( 34, 40)   
    DRY( 35,  1)   DRY( 35,  2)   DRY( 35,  3)   DRY( 35,  4)   DRY( 35,  5)   
    DRY( 35,  6)   DRY( 35,  7)   DRY( 35,  8)   DRY( 35,  9)   DRY( 35, 10)   
    DRY( 35, 11)   DRY( 35, 12)   DRY( 35, 13)   DRY( 35, 14)   DRY( 35, 15)   
    DRY( 35, 16)   DRY( 35, 17)   DRY( 35, 18)   DRY( 35, 19)   DRY( 35, 20)   
    DRY( 35, 21)   DRY( 35, 22)   DRY( 35, 23)   DRY( 35, 24)   DRY( 35, 25)   
    DRY( 35, 26)   DRY( 35, 27)   DRY( 35, 28)   DRY( 35, 29)   DRY( 35, 30)   
    DRY( 35, 31)   DRY( 35, 32)   DRY( 35, 33)   DRY( 35, 34)   DRY( 35, 35)   
    DRY( 35, 36)   DRY( 35, 37)   DRY( 35, 38)   DRY( 35, 39)   DRY( 35, 40)   
    DRY( 36,  1)   DRY( 36,  2)   DRY( 36,  3)   DRY( 36,  4)   DRY( 36,  5)   
    DRY( 36,  6)   DRY( 36,  7)   DRY( 36,  8)   DRY( 36,  9)   DRY( 36, 10)   
    DRY( 36, 11)   DRY( 36, 12)   DRY( 36, 13)   DRY( 36, 14)   DRY( 36, 15)   
    DRY( 36, 16)   DRY( 36, 17)   DRY( 36, 18)   DRY( 36, 19)   DRY( 36, 20)   
    DRY( 36, 21)   DRY( 36, 22)   DRY( 36, 23)   DRY( 36, 24)   DRY( 36, 25)   
    DRY( 36, 26)   DRY( 36, 27)   DRY( 36, 28)   DRY( 36, 29)   DRY( 36, 30)   
    DRY( 36, 31)   DRY( 36, 32)   DRY( 36, 33)   DRY( 36, 34)   DRY( 36, 35)   
    DRY( 36, 36)   DRY( 36, 37)   DRY( 36, 38)   DRY( 36, 39)   DRY( 36, 40)   
    DRY( 37,  1)   DRY( 37,  2)   DRY( 37,  3)   DRY( 37,  4)   DRY( 37,  5)   
    DRY( 37,  6)   DRY( 37,  7)   DRY( 37,  8)   DRY( 37,  9)   DRY( 37, 10)   
    DRY( 37, 11)   DRY( 37, 12)   DRY( 37, 13)   DRY( 37, 14)   DRY( 37, 15)   
    DRY( 37, 16)   DRY( 37, 17)   DRY( 37, 18)   DRY( 37, 19)   DRY( 37, 20)   
    DRY( 37, 21)   DRY( 37, 22)   DRY( 37, 23)   DRY( 37, 24)   DRY( 37, 25)   
    DRY( 37, 26)   DRY( 37, 27)   DRY( 37, 28)   DRY( 37, 29)   DRY( 37, 30)   
    DRY( 37, 31)   DRY( 37, 32)   DRY( 37, 33)   DRY( 37, 34)   DRY( 37, 35)   
    DRY( 37, 36)   DRY( 37, 37)   DRY( 37, 38)   DRY( 37, 39)   DRY( 37, 40)   
    DRY( 38,  1)   DRY( 38,  2)   DRY( 38,  3)   DRY( 38,  4)   DRY( 38,  5)   
    DRY( 38,  6)   DRY( 38,  7)   DRY( 38,  8)   DRY( 38,  9)   DRY( 38, 10)   
    DRY( 38, 11)   DRY( 38, 12)   DRY( 38, 13)   DRY( 38, 14)   DRY( 38, 15)   
    DRY( 38, 16)   DRY( 38, 17)   DRY( 38, 18)   DRY( 38, 19)   DRY( 38, 20)   
    DRY( 38, 21)   DRY( 38, 22)   DRY( 38, 23)   DRY( 38, 24)   DRY( 38, 25)   
    DRY( 38, 26)   DRY( 38, 27)   DRY( 38, 28)   DRY( 38, 29)   DRY( 38, 30)   
    DRY( 38, 31)   DRY( 38, 32)   DRY( 38, 33)   DRY( 38, 34)   DRY( 38, 35)   
    DRY( 38, 36)   DRY( 38, 37)   DRY( 38, 38)   DRY( 38, 39)   DRY( 38, 40)   
    DRY( 39,  1)   DRY( 39,  2)   DRY( 39,  3)   DRY( 39,  4)   DRY( 39,  5)   
    DRY( 39,  6)   DRY( 39,  7)   DRY( 39,  8)   DRY( 39,  9)   DRY( 39, 10)   
    DRY( 39, 11)   DRY( 39, 12)   DRY( 39, 13)   DRY( 39, 14)   DRY( 39, 15)   
    DRY( 39, 16)   DRY( 39, 17)   DRY( 39, 18)   DRY( 39, 19)   DRY( 39, 20)   
    DRY( 39, 21)   DRY( 39, 22)   DRY( 39, 23)   DRY( 39, 24)   DRY( 39, 25)   
    DRY( 39, 26)   DRY( 39, 27)   DRY( 39, 28)   DRY( 39, 29)   DRY( 39, 30)   
    DRY( 39, 31)   DRY( 39, 32)   DRY( 39, 33)   DRY( 39, 34)   DRY( 39, 35)   
    DRY( 39, 36)   DRY( 39, 37)   DRY( 39, 38)   DRY( 39, 39)   DRY( 39, 40)   
    DRY( 40,  1)   DRY( 40,  2)   DRY( 40,  3)   DRY( 40,  4)   DRY( 40,  5)   
    DRY( 40,  6)   DRY( 40,  7)   DRY( 40,  8)   DRY( 40,  9)   DRY( 40, 10)   
    DRY( 40, 11)   DRY( 40, 12)   DRY( 40, 13)   DRY( 40, 14)   DRY( 40, 15)   
    DRY( 40, 16)   DRY( 40, 17)   DRY( 40, 18)   DRY( 40, 19)   DRY( 40, 20)   
    DRY( 40, 21)   DRY( 40, 22)   DRY( 40, 23)   DRY( 40, 24)   DRY( 40, 25)   
    DRY( 40, 26)   DRY( 40, 27)   DRY( 40, 28)   DRY( 40, 29)   DRY( 40, 30)   
    DRY( 40, 31)   DRY( 40, 32)   DRY( 40, 33)   DRY( 40, 34)   DRY( 40, 35)   
    DRY( 40, 36)   DRY( 40, 37)   DRY( 40, 38)   DRY( 40, 39)   DRY( 40, 40)   

 CELL CONVERSIONS FOR ITER.=  2  LAYER=  9  STEP=  1  PERIOD=   1   (ROW,COL)
    WET(  1,  1)   WET(  1,  2)   WET(  1,  3)   WET(  1,  4)   WET(  1,  5)   
    WET(  1,  6)   WET(  1,  7)   WET(  1,  8)   WET(  1,  9)   WET(  1, 10)   
    WET(  1, 11)   WET(  1, 12)   WET(  1, 13)   WET(  1, 14)   WET(  1, 15)   
    WET(  1, 16)   WET(  1, 17)   WET(  2,  1)   WET(  2,  2)   WET(  2,  3)   
    WET(  2,  4)   WET(  2,  5)   WET(  2,  6)   WET(  2,  7)   WET(  2,  8)   
    WET(  2,  9)   WET(  2, 10)   WET(  2, 11)   WET(  2, 12)   WET(  2, 13)   
    WET(  2, 14)   WET(  2, 15)   WET(  2, 16)   WET(  2, 17)   WET(  3,  1)   
    WET(  3,  2)   WET(  3,  3)   WET(  3,  4)   WET(  3,  5)   WET(  3,  6)   
    WET(  3,  7)   WET(  3,  8)   WET(  3,  9)   WET(  3, 10)   WET(  3, 11)   
    WET(  3, 12)   WET(  3, 13)   WET(  3, 14)   WET(  3, 15)   WET(  3, 16)   
    WET(  3, 17)   WET(  4,  1)   WET(  4,  2)   WET(  4,  3)   WET(  4,  4)   
    WET(  4,  5)   WET(  4,  6)   WET(  4,  7)   WET(  4,  8)   WET(  4,  9)   
    WET(  4, 10)   WET(  4, 11)   WET(  4, 12)   WET(  4, 13)   WET(  4, 14)   
    WET(  4, 15)   WET(  4, 16)   WET(  4, 17)   WET(  5,  1)   WET(  5,  2)   
    WET(  5,  3)   WET(  5,  4)   WET(  5,  5)   WET(  5,  6)   WET(  5,  7)   
    WET(  5,  8)   WET(  5,  9)   WET(  5, 10)   WET(  5, 11)   WET(  5, 12)   
    WET(  5, 13)   WET(  5, 14)   WET(  5, 15)   WET(  5, 16)   WET(  5, 17)   
    WET(  6,  1)   WET(  6,  2)   WET(  6,  3)   WET(  6,  4)   WET(  6,  5)   
    WET(  6,  6)   WET(  6,  7)   WET(  6,  8)   WET(  6,  9)   WET(  6, 10)   
    WET(  6, 11)   WET(  6, 12)   WET(  6, 13)   WET(  6, 14)   WET(  6, 15)   
    WET(  6, 16)   WET(  7,  1)   WET(  7,  2)   WET(  7,  3)   WET(  7,  4)   
    WET(  7,  5)   WET(  7,  6)   WET(  7,  7)   WET(  7,  8)   WET(  7,  9)   
    WET(  7, 10)   WET(  7, 11)   WET(  7, 12)   WET(  7, 13)   WET(  7, 14)   
    WET(  7, 15)   WET(  7, 16)   WET(  8,  1)   WET(  8,  2)   WET(  8,  3)   
    WET(  8,  4)   WET(  8,  5)   WET(  8,  6)   WET(  8,  7)   WET(  8,  8)   
    WET(  8,  9)   WET(  8, 10)   WET(  8, 11)   WET(  8, 12)   WET(  8, 13)   
    WET(  8, 14)   WET(  8, 15)   WET(  9,  1)   WET(  9,  2)   WET(  9,  3)   
    WET(  9,  4)   WET(  9,  5)   WET(  9,  6)   WET(  9,  7)   WET(  9,  8)   
    WET(  9,  9)   WET(  9, 10)   WET(  9, 11)   WET(  9, 12)   WET(  9, 13)   
    WET(  9, 14)   WET(  9, 15)   WET( 10,  1)   WET( 10,  2)   WET( 10,  3)   
    WET( 10,  4)   WET( 10,  5)   WET( 10,  6)   WET( 10,  7)   WET( 10,  8)   
    WET( 10,  9)   WET( 10, 10)   WET( 10, 11)   WET( 10, 12)   WET( 10, 13)   
    WET( 10, 14)   WET( 11,  1)   WET( 11,  2)   WET( 11,  3)   WET( 11,  4)   
    WET( 11,  5)   WET( 11,  6)   WET( 11,  7)   WET( 11,  8)   WET( 11,  9)   
    WET( 11, 10)   WET( 11, 11)   WET( 11, 12)   WET( 11, 13)   WET( 11, 14)   
    WET( 12,  1)   WET( 12,  2)   WET( 12,  3)   WET( 12,  4)   WET( 12,  5)   
    WET( 12,  6)   WET( 12,  7)   WET( 12,  8)   WET( 12,  9)   WET( 12, 10)   
    WET( 12, 11)   WET( 12, 12)   WET( 12, 13)   WET( 13,  1)   WET( 13,  2)   
    WET( 13,  3)   WET( 13,  4)   WET( 13,  5)   WET( 13,  6)   WET( 13,  7)   
    WET( 13,  8)   WET( 13,  9)   WET( 13, 10)   WET( 13, 11)   WET( 13, 12)   
    WET( 14,  1)   WET( 14,  2)   WET( 14,  3)   WET( 14,  4)   WET( 14,  5)   
    WET( 14,  6)   WET( 14,  7)   WET( 14,  8)   WET( 14,  9)   WET( 14, 10)   
    WET( 14, 11)   WET( 15,  1)   WET( 15,  2)   WET( 15,  3)   WET( 15,  4)   
    WET( 15,  5)   WET( 15,  6)   WET( 15,  7)   WET( 15,  8)   WET( 15,  9)   
    WET( 16,  1)   WET( 16,  2)   WET( 16,  3)   WET( 16,  4)   WET( 16,  5)   
    WET( 16,  6)   WET( 16,  7)   WET( 17,  1)   WET( 17,  2)   WET( 17,  3)   
    WET( 17,  4)   WET( 17,  5)   

 CELL CONVERSIONS FOR ITER.=  4  LAYER=  9  STEP=  1  PERIOD=   1   (ROW,COL)
    DRY(  5, 17)   DRY( 11, 14)   DRY( 12, 13)   DRY( 13, 12)   DRY( 14, 11)   
    DRY( 17,  5)   


     5 CALLS TO PCG ROUTINE FOR TIME STEP   1 IN STRESS PERIOD    1
    43 TOTAL ITERATIONS

 MAXIMUM HEAD CHANGE FOR EACH ITERATION (1 INDICATES THE FIRST INNER ITERATION):

    HEAD CHANGE    HEAD CHANGE    HEAD CHANGE    HEAD CHANGE    HEAD CHANGE 
   LAYER,ROW,COL  LAYER,ROW,COL  LAYER,ROW,COL  LAYER,ROW,COL  LAYER,ROW,COL
 ---------------------------------------------------------------------------
  1   18.48      0   5.323      0   3.807      0   1.049      0 -0.5470    
   ( 10,  1,  1)  ( 14,  4,  1)  ( 10,  3,  3)  ( 10,  2,  6)  ( 14,  3,  3)
  0 -0.1559      0 -0.1121      0 -0.4739E-01  0 -0.2684E-01  0 -0.1103E-01
   ( 14,  2,  5)  ( 14,  4,  8)  ( 14,  4, 11)  ( 14, 14,  3)  ( 14,  1, 16)
  0 -0.5400E-02  0 -0.2364E-02  0 -0.1256E-02  0 -0.6045E-03  0 -0.3422E-03
   ( 14, 21,  1)  ( 14, 20,  4)  ( 14, 25,  4)  ( 14, 27,  2)  ( 14, 32,  2)
  0 -0.1247E-03  0 -0.5796E-04  1  -24.33      0   3.078      0  0.3934    
   ( 14,  7, 32)  ( 14, 28, 24)  ( 10,  1,  1)  ( 14,  1,  1)  ( 14, 20,  1)
  0 -0.1579      0 -0.4088E-01  0 -0.2703E-01  0 -0.1245E-01  0 -0.4593E-02
   ( 14,  1, 20)  ( 12,  1, 19)  ( 14,  1,  1)  ( 14,  1,  1)  ( 14, 28,  1)
  0 -0.1844E-02  0 -0.1335E-02  0  0.6090E-03  0 -0.2299E-03  0 -0.2011E-03
   ( 14, 31,  1)  ( 13,  2,  2)  ( 13,  2, 19)  ( 14, 37,  2)  ( 13, 19,  1)
  0  0.5984E-04  1 -0.4586E-01  0 -0.9982E-02  0  0.2302E-02  0  0.2684E-02
   ( 14, 36,  5)  (  9,  1,  1)  ( 13,  1,  3)  ( 14,  1,  1)  ( 14,  1,  1)
  0  0.1670E-03  0  0.3108E-03  0  0.8139E-04  1 -0.2007E-02  0  0.4403E-03
   ( 14,  1,  1)  ( 11,  2,  2)  ( 11,  2,  2)  (  9,  2,  2)  ( 14,  2,  2)
  0  0.2126E-03  0  0.3224E-04  1  0.3604E-04
   ( 14,  2,  2)  ( 14,  1,  2)  ( 14,  1,  1)

 MAXIMUM RESIDUAL FOR EACH ITERATION (1 INDICATES THE FIRST INNER ITERATION):

    RESIDUAL       RESIDUAL       RESIDUAL       RESIDUAL       RESIDUAL    
   LAYER,ROW,COL  LAYER,ROW,COL  LAYER,ROW,COL  LAYER,ROW,COL  LAYER,ROW,COL
 ---------------------------------------------------------------------------
  1  -617.0      0  -539.6      0  -233.4      0  -110.9      0  -43.12    
   ( 10,  1,  2)  ( 10,  2,  2)  ( 10,  2,  2)  ( 10,  1,  2)  ( 10,  1,  1)
  0  -21.06      0  -8.534      0   5.186      0   2.891      0   1.029    
   ( 10,  1,  1)  ( 10,  1,  1)  ( 11,  2,  2)  ( 11,  2,  2)  ( 11,  2,  2)
  0 -0.4739      0 -0.2776      0 -0.1425      0 -0.7337E-01  0 -0.2895E-01
   ( 10,  1,  3)  ( 10,  1,  3)  ( 10,  1,  3)  ( 10,  1,  3)  ( 10,  1,  3)
  0 -0.1315E-01  0 -0.8864E-02  1  -246.0      0   48.53      0  -17.86    
   ( 11,  2,  2)  ( 11,  2,  2)  ( 14,  2,  2)  ( 13,  2,  2)  (  9,  1,  1)
  0  -8.595      0  -5.505      0  -2.458      0  -1.222      0 -0.7490    
   (  9,  1,  1)  ( 11,  2,  2)  (  9,  1,  1)  (  9,  1,  1)  (  9,  1,  1)
  0 -0.4268      0 -0.2166      0 -0.1207      0 -0.7486E-01  0 -0.4063E-01
   (  9,  1,  1)  (  9,  1,  1)  (  9,  1,  1)  (  9,  1,  1)  (  9,  1,  1)
  0 -0.2201E-01  1   4.740      0  0.7049      0  0.3990      0 -0.1570    
   (  9,  1,  1)  (  9,  1,  1)  (  9,  1,  1)  (  9,  1,  1)  ( 11,  2,  2)
  0 -0.1193      0 -0.3774E-01  0  0.1997E-01  1  0.3329      0  0.1125    
   ( 11,  2,  2)  ( 11,  2,  2)  ( 14,  2,  2)  (  9,  2,  2)  (  9,  2,  2)
  0  0.2599E-01  0  0.1625E-01  1  0.3504E-01
   (  9,  2,  2)  (  9,  2,  2)  (  9,  2,  2)



 OUTPUT CONTROL FOR STRESS PERIOD    1   TIME STEP    1
    SAVE BUDGET
    PRINT HEAD FOR ALL LAYERS
    PRINT BUDGET
 UBDSV1 SAVING "         STORAGE" ON UNIT  32 AT TIME STEP  1, STRESS PERIOD   1
 UBDSV2 SAVING "   CONSTANT HEAD" ON UNIT  32 AT TIME STEP  1, STRESS PERIOD   1
 UBDSV1 SAVING "FLOW RIGHT FACE " ON UNIT  32 AT TIME STEP  1, STRESS PERIOD   1
 UBDSV1 SAVING "FLOW FRONT FACE " ON UNIT  32 AT TIME STEP  1, STRESS PERIOD   1
 UBDSV1 SAVING "FLOW LOWER FACE " ON UNIT  32 AT TIME STEP  1, STRESS PERIOD   1
 UBDSV3 SAVING "        RECHARGE" ON UNIT  32 AT TIME STEP  1, STRESS PERIOD   1
1
              HEAD IN LAYER   1 AT END OF TIME STEP   1 IN STRESS PERIOD    1
  ---------------------------------------------------------------------------

            1           2           3           4           5           6           7           8           9          10
           11          12          13          14          15          16          17          18          19          20
           21          22          23          24          25          26          27          28          29          30
           31          32          33          34          35          36          37          38          39          40
 ........................................................................................................................
   1   -99.90      -99.90      -99.90      -99.90      -99.90      -99.90      -99.90      -99.90      -99.90      -99.90    
       -99.90      -99.90      -99.90      -99.90      -99.90      -99.90      -99.90      -99.90      -99.90      -99.90    
       -99.90      -99.90      -99.90      -99.90      -99.90      -99.90      -99.90      -99.90      -99.90      -99.90    
       -99.90      -99.90      -99.90      -99.90      -99.90      -99.90      -99.90      -99.90      -99.90      -99.90    
   2   -99.90      -99.90      -99.90      -99.90      -99.90      -99.90      -99.90      -99.90      -99.90      -99.90    
       -99.90      -99.90      -99.90      -99.90      -99.90      -99.90      -99.90      -99.90      -99.90      -99.90    
       -99.90      -99.90      -99.90      -99.90      -99.90      -99.90      -99.90      -99.90      -99.90      -99.90    
       -99.90      -99.90      -99.90      -99.90      -99.90      -99.90      -99.90      -99.90      -99.90      -99.90    
   3   -99.90      -99.90      -99.90      -99.90      -99.90      -99.90      -99.90      -99.90      -99.90      -99.90    
       -99.90      -99.90      -99.90      -99.90      -99.90      -99.90      -99.90      -99.90      -99.90      -99.90    
       -99.90      -99.90      -99.90      -99.90      -99.90      -99.90      -99.90      -99.90      -99.90      -99.90    
       -99.90      -99.90      -99.90      -99.90      -99.90      -99.90      -99.90      -99.90      -99.90      -99.90    
   4   -99.90      -99.90      -99.90      -99.90      -99.90      -99.90      -99.90      -99.90      -99.90      -99.90    
       -99.90      -99.90      -99.90      -99.90      -99.90      -99.90      -99.90      -99.90      -99.90      -99.90    
       -99.90      -99.90      -99.90      -99.90      -99.90      -99.90      -99.90      -99.90      -99.90      -99.90    
       -99.90      -99.90      -99.90      -99.90      -99.90      -99.90      -99.90      -99.90      -99.90      -99.90    
   5   -99.90      -99.90      -99.90      -99.90      -99.90      -99.90      -99.90      -99.90      -99.90      -99.90    
       -99.90      -99.90      -99.90      -99.90      -99.90      -99.90      -99.90      -99.90      -99.90      -99.90    
       -99.90      -99.90      -99.90      -99.90      -99.90      -99.90      -99.90      -99.90      -99.90      -99.90    
       -99.90      -99.90      -99.90      -99.90      -99.90      -99.90      -99.90      -99.90      -99.90      -99.90    
   6   -99.90      -99.90      -99.90      -99.90      -99.90      -99.90      -99.90      -99.90      -99.90      -99.90    
       -99.90      -99.90      -99.90      -99.90      -99.90      -99.90      -99.90      -99.90      -99.90      -99.90    
       -99.90      -99.90      -99.90      -99.90      -99.90      -99.90      -99.90      -99.90      -99.90      -99.90    
       -99.90      -99.90      -99.90      -99.90      -99.90      -99.90      -99.90      -99.90      -99.90      -99.90    
   7   -99.90      -99.90      -99.90      -99.90      -99.90      -99.90      -99.90      -99.90      -99.90      -99.90    
       -99.90      -99.90      -99.90      -99.90      -99.90      -99.90      -99.90      -99.90      -99.90      -99.90    
       -99.90      -99.90      -99.90      -99.90      -99.90      -99.90      -99.90      -99.90      -99.90      -99.90    
       -99.90      -99.90      -99.90      -99.90      -99.90      -99.90      -99.90      -99.90      -99.90      -99.90    
   8   -99.90      -99.90      -99.90      -99.90      -99.90      -99.90      -99.90      -99.90      -99.90      -99.90    
       -99.90      -99.90      -99.90      -99.90      -99.90      -99.90      -99.90      -99.90      -99.90      -99.90    
       -99.90      -99.90      -99.90      -99.90      -99.90      -99.90      -99.90      -99.90      -99.90      -99.90    
       -99.90      -99.90      -99.90      -99.90      -99.90      -99.90      -99.90      -99.90      -99.90      -99.90    
   9   -99.90      -99.90      -99.90      -99.90      -99.90      -99.90      -99.90      -99.90      -99.90      -99.90    
       -99.90      -99.90      -99.90      -99.90      -99.90      -99.90      -99.90      -99.90      -99.90      -99.90    
       -99.90      -99.90      -99.90      -99.90      -99.90      -99.90      -99.90      -99.90      -99.90      -99.90    
       -99.90      -99.90      -99.90      -99.90      -99.90      -99.90      -99.90      -99.90      -99.90      -99.90    
  10   -99.90      -99.90      -99.90      -99.90      -99.90      -99.90      -99.90      -99.90      -99.90      -99.90    
       -99.90      -99.90      -99.90      -99.90      -99.90      -99.90      -99.90      -99.90      -99.90      -99.90    
       -99.90      -99.90      -99.90      -99.90      -99.90      -99.90      -99.90      -99.90      -99.90      -99.90    
       -99.90      -99.90      -99.90      -99.90      -99.90      -99.90      -99.90      -99.90      -99.90      -99.90    
  11   -99.90      -99.90      -99.90      -99.90      -99.90      -99.90      -99.90      -99.90      -99.90      -99.90    
       -99.90      -99.90      -99.90      -99.90      -99.90      -99.90      -99.90      -99.90      -99.90      -99.90    
       -99.90      -99.90      -99.90      -99.90      -99.90      -99.90      -99.90      -99.90      -99.90      -99.90    
       -99.90      -99.90      -99.90      -99.90      -99.90      -99.90      -99.90      -99.90      -99.90      -99.90    
  12   -99.90      -99.90      -99.90      -99.90      -99.90      -99.90      -99.90      -99.90      -99.90      -99.90    
       -99.90      -99.90      -99.90      -99.90      -99.90      -99.90      -99.90      -99.90      -99.90      -99.90    
       -99.90      -99.90      -99.90      -99.90      -99.90      -99.90      -99.90      -99.90      -99.90      -99.90    
       -99.90      -99.90      -99.90      -99.90      -99.90      -99.90      -99.90      -99.90      -99.90      -99.90    
  13   -99.90      -99.90      -99.90      -99.90      -99.90      -99.90      -99.90      -99.90      -99.90      -99.90    
       -99.90      -99.90      -99.90      -99.90      -99.90      -99.90      -99.90      -99.90      -99.90      -99.90    
       -99.90      -99.90      -99.90      -99.90      -99.90      -99.90      -99.90      -99.90      -99.90      -99.90    
       -99.90      -99.90      -99.90      -99.90      -99.90      -99.90      -99.90      -99.90      -99.90      -99.90    
  14   -99.90      -99.90      -99.90      -99.90      -99.90      -99.90      -99.90      -99.90      -99.90      -99.90    
       -99.90      -99.90      -99.90      -99.90      -99.90      -99.90      -99.90      -99.90      -99.90      -99.90    
       -99.90      -99.90      -99.90      -99.90      -99.90      -99.90      -99.90      -99.90      -99.90      -99.90    
       -99.90      -99.90      -99.90      -99.90      -99.90      -99.90      -99.90      -99.90      -99.90      -99.90    
  15   -99.90      -99.90      -99.90      -99.90      -99.90      -99.90      -99.90      -99.90      -99.90      -99.90    
       -99.90      -99.90      -99.90      -99.90      -99.90      -99.90      -99.90      -99.90      -99.90      -99.90    
       -99.90      -99.90      -99.90      -99.90      -99.90      -99.90      -99.90      -99.90      -99.90      -99.90    
       -99.90      -99.90      -99.90      -99.90      -99.90      -99.90      -99.90      -99.90      -99.90      -99.90    
  16   -99.90      -99.90      -99.90      -99.90      -99.90      -99.90      -99.90      -99.90      -99.90      -99.90    
       -99.90      -99.90      -99.90      -99.90      -99.90      -99.90      -99.90      -99.90      -99.90      -99.90    
       -99.90      -99.90      -99.90      -99.90      -99.90      -99.90      -99.90      -99.90      -99.90      -99.90    
       -99.90      -99.90      -99.90      -99.90      -99.90      -99.90      -99.90      -99.90      -99.90      -99.90    
  17   -99.90      -99.90      -99.90      -99.90      -99.90      -99.90      -99.90      -99.90      -99.90      -99.90    
       -99.90      -99.90      -99.90      -99.90      -99.90      -99.90      -99.90      -99.90      -99.90      -99.90    
       -99.90      -99.90      -99.90      -99.90      -99.90      -99.90      -99.90      -99.90      -99.90      -99.90    
       -99.90      -99.90      -99.90      -99.90      -99.90      -99.90      -99.90      -99.90      -99.90      -99.90    
  18   -99.90      -99.90      -99.90      -99.90      -99.90      -99.90      -99.90      -99.90      -99.90      -99.90    
       -99.90      -99.90      -99.90      -99.90      -99.90      -99.90      -99.90      -99.90      -99.90      -99.90    
       -99.90      -99.90      -99.90      -99.90      -99.90      -99.90      -99.90      -99.90      -99.90      -99.90    
       -99.90      -99.90      -99.90      -99.90      -99.90      -99.90      -99.90      -99.90      -99.90      -99.90    
  19   -99.90      -99.90      -99.90      -99.90      -99.90      -99.90      -99.90      -99.90      -99.90      -99.90    
       -99.90      -99.90      -99.90      -99.90      -99.90      -99.90      -99.90      -99.90      -99.90      -99.90    
       -99.90      -99.90      -99.90      -99.90      -99.90      -99.90      -99.90      -99.90      -99.90      -99.90    
       -99.90      -99.90      -99.90      -99.90      -99.90      -99.90      -99.90      -99.90      -99.90      -99.90    
  20   -99.90      -99.90      -99.90      -99.90      -99.90      -99.90      -99.90      -99.90      -99.90      -99.90    
       -99.90      -99.90      -99.90      -99.90      -99.90      -99.90      -99.90      -99.90      -99.90      -99.90    
       -99.90      -99.90      -99.90      -99.90      -99.90      -99.90      -99.90      -99.90      -99.90      -99.90    
       -99.90      -99.90      -99.90      -99.90      -99.90      -99.90      -99.90      -99.90      -99.90      -99.90    
  21   -99.90      -99.90      -99.90      -99.90      -99.90      -99.90      -99.90      -99.90      -99.90      -99.90    
       -99.90      -99.90      -99.90      -99.90      -99.90      -99.90      -99.90      -99.90      -99.90      -99.90    
       -99.90      -99.90      -99.90      -99.90      -99.90      -99.90      -99.90      -99.90      -99.90      -99.90    
       -99.90      -99.90      -99.90      -99.90      -99.90      -99.90      -99.90      -99.90      -99.90      -99.90    
  22   -99.90      -99.90      -99.90      -99.90      -99.90      -99.90      -99.90      -99.90      -99.90      -99.90    
       -99.90      -99.90      -99.90      -99.90      -99.90      -99.90      -99.90      -99.90      -99.90      -99.90    
       -99.90      -99.90      -99.90      -99.90      -99.90      -99.90      -99.90      -99.90      -99.90      -99.90    
       -99.90      -99.90      -99.90      -99.90      -99.90      -99.90      -99.90      -99.90      -99.90      -99.90    
  23   -99.90      -99.90      -99.90      -99.90      -99.90      -99.90      -99.90      -99.90      -99.90      -99.90    
       -99.90      -99.90      -99.90      -99.90      -99.90      -99.90      -99.90      -99.90      -99.90      -99.90    
       -99.90      -99.90      -99.90      -99.90      -99.90      -99.90      -99.90      -99.90      -99.90      -99.90    
       -99.90      -99.90      -99.90      -99.90      -99.90      -99.90      -99.90      -99.90      -99.90      -99.90    
  24   -99.90      -99.90      -99.90      -99.90      -99.90      -99.90      -99.90      -99.90      -99.90      -99.90    
       -99.90      -99.90      -99.90      -99.90      -99.90      -99.90      -99.90      -99.90      -99.90      -99.90    
       -99.90      -99.90      -99.90      -99.90      -99.90      -99.90      -99.90      -99.90      -99.90      -99.90    
       -99.90      -99.90      -99.90      -99.90      -99.90      -99.90      -99.90      -99.90      -99.90      -99.90    
  25   -99.90      -99.90      -99.90      -99.90      -99.90      -99.90      -99.90      -99.90      -99.90      -99.90    
       -99.90      -99.90      -99.90      -99.90      -99.90      -99.90      -99.90      -99.90      -99.90      -99.90    
       -99.90      -99.90      -99.90      -99.90      -99.90      -99.90      -99.90      -99.90      -99.90      -99.90    
       -99.90      -99.90      -99.90      -99.90      -99.90      -99.90      -99.90      -99.90      -99.90      -99.90    
  26   -99.90      -99.90      -99.90      -99.90      -99.90      -99.90      -99.90      -99.90      -99.90      -99.90    
       -99.90      -99.90      -99.90      -99.90      -99.90      -99.90      -99.90      -99.90      -99.90      -99.90    
       -99.90      -99.90      -99.90      -99.90      -99.90      -99.90      -99.90      -99.90      -99.90      -99.90    
       -99.90      -99.90      -99.90      -99.90      -99.90      -99.90      -99.90      -99.90      -99.90      -99.90    
  27   -99.90      -99.90      -99.90      -99.90      -99.90      -99.90      -99.90      -99.90      -99.90      -99.90    
       -99.90      -99.90      -99.90      -99.90      -99.90      -99.90      -99.90      -99.90      -99.90      -99.90    
       -99.90      -99.90      -99.90      -99.90      -99.90      -99.90      -99.90      -99.90      -99.90      -99.90    
       -99.90      -99.90      -99.90      -99.90      -99.90      -99.90      -99.90      -99.90      -99.90      -99.90    
  28   -99.90      -99.90      -99.90      -99.90      -99.90      -99.90      -99.90      -99.90      -99.90      -99.90    
       -99.90      -99.90      -99.90      -99.90      -99.90      -99.90      -99.90      -99.90      -99.90      -99.90    
       -99.90      -99.90      -99.90      -99.90      -99.90      -99.90      -99.90      -99.90      -99.90      -99.90    
       -99.90      -99.90      -99.90      -99.90      -99.90      -99.90      -99.90      -99.90      -99.90      -99.90    
  29   -99.90      -99.90      -99.90      -99.90      -99.90      -99.90      -99.90      -99.90      -99.90      -99.90    
       -99.90      -99.90      -99.90      -99.90      -99.90      -99.90      -99.90      -99.90      -99.90      -99.90    
       -99.90      -99.90      -99.90      -99.90      -99.90      -99.90      -99.90      -99.90      -99.90      -99.90    
       -99.90      -99.90      -99.90      -99.90      -99.90      -99.90      -99.90      -99.90      -99.90      -99.90    
  30   -99.90      -99.90      -99.90      -99.90      -99.90      -99.90      -99.90      -99.90      -99.90      -99.90    
       -99.90      -99.90      -99.90      -99.90      -99.90      -99.90      -99.90      -99.90      -99.90      -99.90    
       -99.90      -99.90      -99.90      -99.90      -99.90      -99.90      -99.90      -99.90      -99.90      -99.90    
       -99.90      -99.90      -99.90      -99.90      -99.90      -99.90      -99.90      -99.90      -99.90      -99.90    
  31   -99.90      -99.90      -99.90      -99.90      -99.90      -99.90      -99.90      -99.90      -99.90      -99.90    
       -99.90      -99.90      -99.90      -99.90      -99.90      -99.90      -99.90      -99.90      -99.90      -99.90    
       -99.90      -99.90      -99.90      -99.90      -99.90      -99.90      -99.90      -99.90      -99.90      -99.90    
       -99.90      -99.90      -99.90      -99.90      -99.90      -99.90      -99.90      -99.90      -99.90      -99.90    
  32   -99.90      -99.90      -99.90      -99.90      -99.90      -99.90      -99.90      -99.90      -99.90      -99.90    
       -99.90      -99.90      -99.90      -99.90      -99.90      -99.90      -99.90      -99.90      -99.90      -99.90    
       -99.90      -99.90      -99.90      -99.90      -99.90      -99.90      -99.90      -99.90      -99.90      -99.90    
       -99.90      -99.90      -99.90      -99.90      -99.90      -99.90      -99.90      -99.90      -99.90      -99.90    
  33   -99.90      -99.90      -99.90      -99.90      -99.90      -99.90      -99.90      -99.90      -99.90      -99.90    
       -99.90      -99.90      -99.90      -99.90      -99.90      -99.90      -99.90      -99.90      -99.90      -99.90    
       -99.90      -99.90      -99.90      -99.90      -99.90      -99.90      -99.90      -99.90      -99.90      -99.90    
       -99.90      -99.90      -99.90      -99.90      -99.90      -99.90      -99.90      -99.90      -99.90      -99.90    
  34   -99.90      -99.90      -99.90      -99.90      -99.90      -99.90      -99.90      -99.90      -99.90      -99.90    
       -99.90      -99.90      -99.90      -99.90      -99.90      -99.90      -99.90      -99.90      -99.90      -99.90    
       -99.90      -99.90      -99.90      -99.90      -99.90      -99.90      -99.90      -99.90      -99.90      -99.90    
       -99.90      -99.90      -99.90      -99.90      -99.90      -99.90      -99.90      -99.90      -99.90      -99.90    
  35   -99.90      -99.90      -99.90      -99.90      -99.90      -99.90      -99.90      -99.90      -99.90      -99.90    
       -99.90      -99.90      -99.90      -99.90      -99.90      -99.90      -99.90      -99.90      -99.90      -99.90    
       -99.90      -99.90      -99.90      -99.90      -99.90      -99.90      -99.90      -99.90      -99.90      -99.90    
       -99.90      -99.90      -99.90      -99.90      -99.90      -99.90      -99.90      -99.90      -99.90      -99.90    
  36   -99.90      -99.90      -99.90      -99.90      -99.90      -99.90      -99.90      -99.90      -99.90      -99.90    
       -99.90      -99.90      -99.90      -99.90      -99.90      -99.90      -99.90      -99.90      -99.90      -99.90    
       -99.90      -99.90      -99.90      -99.90      -99.90      -99.90      -99.90      -99.90      -99.90      -99.90    
       -99.90      -99.90      -99.90      -99.90      -99.90      -99.90      -99.90      -99.90      -99.90      -99.90    
  37   -99.90      -99.90      -99.90      -99.90      -99.90      -99.90      -99.90      -99.90      -99.90      -99.90    
       -99.90      -99.90      -99.90      -99.90      -99.90      -99.90      -99.90      -99.90      -99.90      -99.90    
       -99.90      -99.90      -99.90      -99.90      -99.90      -99.90      -99.90      -99.90      -99.90      -99.90    
       -99.90      -99.90      -99.90      -99.90      -99.90      -99.90      -99.90      -99.90      -99.90      -99.90    
  38   -99.90      -99.90      -99.90      -99.90      -99.90      -99.90      -99.90      -99.90      -99.90      -99.90    
       -99.90      -99.90      -99.90      -99.90      -99.90      -99.90      -99.90      -99.90      -99.90      -99.90    
       -99.90      -99.90      -99.90      -99.90      -99.90      -99.90      -99.90      -99.90      -99.90      -99.90    
       -99.90      -99.90      -99.90      -99.90      -99.90      -99.90      -99.90      -99.90      -99.90      -99.90    
  39   -99.90      -99.90      -99.90      -99.90      -99.90      -99.90      -99.90      -99.90      -99.90      -99.90    
       -99.90      -99.90      -99.90      -99.90      -99.90      -99.90      -99.90      -99.90      -99.90      -99.90    
       -99.90      -99.90      -99.90      -99.90      -99.90      -99.90      -99.90      -99.90      -99.90      -99.90    
       -99.90      -99.90      -99.90      -99.90      -99.90      -99.90      -99.90      -99.90      -99.90      -99.90    
  40   -99.90      -99.90      -99.90      -99.90      -99.90      -99.90      -99.90      -99.90      -99.90      -99.90    
       -99.90      -99.90      -99.90      -99.90      -99.90      -99.90      -99.90      -99.90      -99.90      -99.90    
       -99.90      -99.90      -99.90      -99.90      -99.90      -99.90      -99.90      -99.90      -99.90      -99.90    
       -99.90      -99.90      -99.90      -99.90      -99.90      -99.90      -99.90      -99.90      -99.90      -99.90    
1
              HEAD IN LAYER   2 AT END OF TIME STEP   1 IN STRESS PERIOD    1
  ---------------------------------------------------------------------------

            1           2           3           4           5           6           7           8           9          10
           11          12          13          14          15          16          17          18          19          20
           21          22          23          24          25          26          27          28          29          30
           31          32          33          34          35          36          37          38          39          40
 ........................................................................................................................
   1   -99.90      -99.90      -99.90      -99.90      -99.90      -99.90      -99.90      -99.90      -99.90      -99.90    
       -99.90      -99.90      -99.90      -99.90      -99.90      -99.90      -99.90      -99.90      -99.90      -99.90    
       -99.90      -99.90      -99.90      -99.90      -99.90      -99.90      -99.90      -99.90      -99.90      -99.90    
       -99.90      -99.90      -99.90      -99.90      -99.90      -99.90      -99.90      -99.90      -99.90      -99.90    
   2   -99.90      -99.90      -99.90      -99.90      -99.90      -99.90      -99.90      -99.90      -99.90      -99.90    
       -99.90      -99.90      -99.90      -99.90      -99.90      -99.90      -99.90      -99.90      -99.90      -99.90    
       -99.90      -99.90      -99.90      -99.90      -99.90      -99.90      -99.90      -99.90      -99.90      -99.90    
       -99.90      -99.90      -99.90      -99.90      -99.90      -99.90      -99.90      -99.90      -99.90      -99.90    
   3   -99.90      -99.90      -99.90      -99.90      -99.90      -99.90      -99.90      -99.90      -99.90      -99.90    
       -99.90      -99.90      -99.90      -99.90      -99.90      -99.90      -99.90      -99.90      -99.90      -99.90    
       -99.90      -99.90      -99.90      -99.90      -99.90      -99.90      -99.90      -99.90      -99.90      -99.90    
       -99.90      -99.90      -99.90      -99.90      -99.90      -99.90      -99.90      -99.90      -99.90      -99.90    
   4   -99.90      -99.90      -99.90      -99.90      -99.90      -99.90      -99.90      -99.90      -99.90      -99.90    
       -99.90      -99.90      -99.90      -99.90      -99.90      -99.90      -99.90      -99.90      -99.90      -99.90    
       -99.90      -99.90      -99.90      -99.90      -99.90      -99.90      -99.90      -99.90      -99.90      -99.90    
       -99.90      -99.90      -99.90      -99.90      -99.90      -99.90      -99.90      -99.90      -99.90      -99.90    
   5   -99.90      -99.90      -99.90      -99.90      -99.90      -99.90      -99.90      -99.90      -99.90      -99.90    
       -99.90      -99.90      -99.90      -99.90      -99.90      -99.90      -99.90      -99.90      -99.90      -99.90    
       -99.90      -99.90      -99.90      -99.90      -99.90      -99.90      -99.90      -99.90      -99.90      -99.90    
       -99.90      -99.90      -99.90      -99.90      -99.90      -99.90      -99.90      -99.90      -99.90      -99.90    
   6   -99.90      -99.90      -99.90      -99.90      -99.90      -99.90      -99.90      -99.90      -99.90      -99.90    
       -99.90      -99.90      -99.90      -99.90      -99.90      -99.90      -99.90      -99.90      -99.90      -99.90    
       -99.90      -99.90      -99.90      -99.90      -99.90      -99.90      -99.90      -99.90      -99.90      -99.90    
       -99.90      -99.90      -99.90      -99.90      -99.90      -99.90      -99.90      -99.90      -99.90      -99.90    
   7   -99.90      -99.90      -99.90      -99.90      -99.90      -99.90      -99.90      -99.90      -99.90      -99.90    
       -99.90      -99.90      -99.90      -99.90      -99.90      -99.90      -99.90      -99.90      -99.90      -99.90    
       -99.90      -99.90      -99.90      -99.90      -99.90      -99.90      -99.90      -99.90      -99.90      -99.90    
       -99.90      -99.90      -99.90      -99.90      -99.90      -99.90      -99.90      -99.90      -99.90      -99.90    
   8   -99.90      -99.90      -99.90      -99.90      -99.90      -99.90      -99.90      -99.90      -99.90      -99.90    
       -99.90      -99.90      -99.90      -99.90      -99.90      -99.90      -99.90      -99.90      -99.90      -99.90    
       -99.90      -99.90      -99.90      -99.90      -99.90      -99.90      -99.90      -99.90      -99.90      -99.90    
       -99.90      -99.90      -99.90      -99.90      -99.90      -99.90      -99.90      -99.90      -99.90      -99.90    
   9   -99.90      -99.90      -99.90      -99.90      -99.90      -99.90      -99.90      -99.90      -99.90      -99.90    
       -99.90      -99.90      -99.90      -99.90      -99.90      -99.90      -99.90      -99.90      -99.90      -99.90    
       -99.90      -99.90      -99.90      -99.90      -99.90      -99.90      -99.90      -99.90      -99.90      -99.90    
       -99.90      -99.90      -99.90      -99.90      -99.90      -99.90      -99.90      -99.90      -99.90      -99.90    
  10   -99.90      -99.90      -99.90      -99.90      -99.90      -99.90      -99.90      -99.90      -99.90      -99.90    
       -99.90      -99.90      -99.90      -99.90      -99.90      -99.90      -99.90      -99.90      -99.90      -99.90    
       -99.90      -99.90      -99.90      -99.90      -99.90      -99.90      -99.90      -99.90      -99.90      -99.90    
       -99.90      -99.90      -99.90      -99.90      -99.90      -99.90      -99.90      -99.90      -99.90      -99.90    
  11   -99.90      -99.90      -99.90      -99.90      -99.90      -99.90      -99.90      -99.90      -99.90      -99.90    
       -99.90      -99.90      -99.90      -99.90      -99.90      -99.90      -99.90      -99.90      -99.90      -99.90    
       -99.90      -99.90      -99.90      -99.90      -99.90      -99.90      -99.90      -99.90      -99.90      -99.90    
       -99.90      -99.90      -99.90      -99.90      -99.90      -99.90      -99.90      -99.90      -99.90      -99.90    
  12   -99.90      -99.90      -99.90      -99.90      -99.90      -99.90      -99.90      -99.90      -99.90      -99.90    
       -99.90      -99.90      -99.90      -99.90      -99.90      -99.90      -99.90      -99.90      -99.90      -99.90    
       -99.90      -99.90      -99.90      -99.90      -99.90      -99.90      -99.90      -99.90      -99.90      -99.90    
       -99.90      -99.90      -99.90      -99.90      -99.90      -99.90      -99.90      -99.90      -99.90      -99.90    
  13   -99.90      -99.90      -99.90      -99.90      -99.90      -99.90      -99.90      -99.90      -99.90      -99.90    
       -99.90      -99.90      -99.90      -99.90      -99.90      -99.90      -99.90      -99.90      -99.90      -99.90    
       -99.90      -99.90      -99.90      -99.90      -99.90      -99.90      -99.90      -99.90      -99.90      -99.90    
       -99.90      -99.90      -99.90      -99.90      -99.90      -99.90      -99.90      -99.90      -99.90      -99.90    
  14   -99.90      -99.90      -99.90      -99.90      -99.90      -99.90      -99.90      -99.90      -99.90      -99.90    
       -99.90      -99.90      -99.90      -99.90      -99.90      -99.90      -99.90      -99.90      -99.90      -99.90    
       -99.90      -99.90      -99.90      -99.90      -99.90      -99.90      -99.90      -99.90      -99.90      -99.90    
       -99.90      -99.90      -99.90      -99.90      -99.90      -99.90      -99.90      -99.90      -99.90      -99.90    
  15   -99.90      -99.90      -99.90      -99.90      -99.90      -99.90      -99.90      -99.90      -99.90      -99.90    
       -99.90      -99.90      -99.90      -99.90      -99.90      -99.90      -99.90      -99.90      -99.90      -99.90    
       -99.90      -99.90      -99.90      -99.90      -99.90      -99.90      -99.90      -99.90      -99.90      -99.90    
       -99.90      -99.90      -99.90      -99.90      -99.90      -99.90      -99.90      -99.90      -99.90      -99.90    
  16   -99.90      -99.90      -99.90      -99.90      -99.90      -99.90      -99.90      -99.90      -99.90      -99.90    
       -99.90      -99.90      -99.90      -99.90      -99.90      -99.90      -99.90      -99.90      -99.90      -99.90    
       -99.90      -99.90      -99.90      -99.90      -99.90      -99.90      -99.90      -99.90      -99.90      -99.90    
       -99.90      -99.90      -99.90      -99.90      -99.90      -99.90      -99.90      -99.90      -99.90      -99.90    
  17   -99.90      -99.90      -99.90      -99.90      -99.90      -99.90      -99.90      -99.90      -99.90      -99.90    
       -99.90      -99.90      -99.90      -99.90      -99.90      -99.90      -99.90      -99.90      -99.90      -99.90    
       -99.90      -99.90      -99.90      -99.90      -99.90      -99.90      -99.90      -99.90      -99.90      -99.90    
       -99.90      -99.90      -99.90      -99.90      -99.90      -99.90      -99.90      -99.90      -99.90      -99.90    
  18   -99.90      -99.90      -99.90      -99.90      -99.90      -99.90      -99.90      -99.90      -99.90      -99.90    
       -99.90      -99.90      -99.90      -99.90      -99.90      -99.90      -99.90      -99.90      -99.90      -99.90    
       -99.90      -99.90      -99.90      -99.90      -99.90      -99.90      -99.90      -99.90      -99.90      -99.90    
       -99.90      -99.90      -99.90      -99.90      -99.90      -99.90      -99.90      -99.90      -99.90      -99.90    
  19   -99.90      -99.90      -99.90      -99.90      -99.90      -99.90      -99.90      -99.90      -99.90      -99.90    
       -99.90      -99.90      -99.90      -99.90      -99.90      -99.90      -99.90      -99.90      -99.90      -99.90    
       -99.90      -99.90      -99.90      -99.90      -99.90      -99.90      -99.90      -99.90      -99.90      -99.90    
       -99.90      -99.90      -99.90      -99.90      -99.90      -99.90      -99.90      -99.90      -99.90      -99.90    
  20   -99.90      -99.90      -99.90      -99.90      -99.90      -99.90      -99.90      -99.90      -99.90      -99.90    
       -99.90      -99.90      -99.90      -99.90      -99.90      -99.90      -99.90      -99.90      -99.90      -99.90    
       -99.90      -99.90      -99.90      -99.90      -99.90      -99.90      -99.90      -99.90      -99.90      -99.90    
       -99.90      -99.90      -99.90      -99.90      -99.90      -99.90      -99.90      -99.90      -99.90      -99.90    
  21   -99.90      -99.90      -99.90      -99.90      -99.90      -99.90      -99.90      -99.90      -99.90      -99.90    
       -99.90      -99.90      -99.90      -99.90      -99.90      -99.90      -99.90      -99.90      -99.90      -99.90    
       -99.90      -99.90      -99.90      -99.90      -99.90      -99.90      -99.90      -99.90      -99.90      -99.90    
       -99.90      -99.90      -99.90      -99.90      -99.90      -99.90      -99.90      -99.90      -99.90      -99.90    
  22   -99.90      -99.90      -99.90      -99.90      -99.90      -99.90      -99.90      -99.90      -99.90      -99.90    
       -99.90      -99.90      -99.90      -99.90      -99.90      -99.90      -99.90      -99.90      -99.90      -99.90    
       -99.90      -99.90      -99.90      -99.90      -99.90      -99.90      -99.90      -99.90      -99.90      -99.90    
       -99.90      -99.90      -99.90      -99.90      -99.90      -99.90      -99.90      -99.90      -99.90      -99.90    
  23   -99.90      -99.90      -99.90      -99.90      -99.90      -99.90      -99.90      -99.90      -99.90      -99.90    
       -99.90      -99.90      -99.90      -99.90      -99.90      -99.90      -99.90      -99.90      -99.90      -99.90    
       -99.90      -99.90      -99.90      -99.90      -99.90      -99.90      -99.90      -99.90      -99.90      -99.90    
       -99.90      -99.90      -99.90      -99.90      -99.90      -99.90      -99.90      -99.90      -99.90      -99.90    
  24   -99.90      -99.90      -99.90      -99.90      -99.90      -99.90      -99.90      -99.90      -99.90      -99.90    
       -99.90      -99.90      -99.90      -99.90      -99.90      -99.90      -99.90      -99.90      -99.90      -99.90    
       -99.90      -99.90      -99.90      -99.90      -99.90      -99.90      -99.90      -99.90      -99.90      -99.90    
       -99.90      -99.90      -99.90      -99.90      -99.90      -99.90      -99.90      -99.90      -99.90      -99.90    
  25   -99.90      -99.90      -99.90      -99.90      -99.90      -99.90      -99.90      -99.90      -99.90      -99.90    
       -99.90      -99.90      -99.90      -99.90      -99.90      -99.90      -99.90      -99.90      -99.90      -99.90    
       -99.90      -99.90      -99.90      -99.90      -99.90      -99.90      -99.90      -99.90      -99.90      -99.90    
       -99.90      -99.90      -99.90      -99.90      -99.90      -99.90      -99.90      -99.90      -99.90      -99.90    
  26   -99.90      -99.90      -99.90      -99.90      -99.90      -99.90      -99.90      -99.90      -99.90      -99.90    
       -99.90      -99.90      -99.90      -99.90      -99.90      -99.90      -99.90      -99.90      -99.90      -99.90    
       -99.90      -99.90      -99.90      -99.90      -99.90      -99.90      -99.90      -99.90      -99.90      -99.90    
       -99.90      -99.90      -99.90      -99.90      -99.90      -99.90      -99.90      -99.90      -99.90      -99.90    
  27   -99.90      -99.90      -99.90      -99.90      -99.90      -99.90      -99.90      -99.90      -99.90      -99.90    
       -99.90      -99.90      -99.90      -99.90      -99.90      -99.90      -99.90      -99.90      -99.90      -99.90    
       -99.90      -99.90      -99.90      -99.90      -99.90      -99.90      -99.90      -99.90      -99.90      -99.90    
       -99.90      -99.90      -99.90      -99.90      -99.90      -99.90      -99.90      -99.90      -99.90      -99.90    
  28   -99.90      -99.90      -99.90      -99.90      -99.90      -99.90      -99.90      -99.90      -99.90      -99.90    
       -99.90      -99.90      -99.90      -99.90      -99.90      -99.90      -99.90      -99.90      -99.90      -99.90    
       -99.90      -99.90      -99.90      -99.90      -99.90      -99.90      -99.90      -99.90      -99.90      -99.90    
       -99.90      -99.90      -99.90      -99.90      -99.90      -99.90      -99.90      -99.90      -99.90      -99.90    
  29   -99.90      -99.90      -99.90      -99.90      -99.90      -99.90      -99.90      -99.90      -99.90      -99.90    
       -99.90      -99.90      -99.90      -99.90      -99.90      -99.90      -99.90      -99.90      -99.90      -99.90    
       -99.90      -99.90      -99.90      -99.90      -99.90      -99.90      -99.90      -99.90      -99.90      -99.90    
       -99.90      -99.90      -99.90      -99.90      -99.90      -99.90      -99.90      -99.90      -99.90      -99.90    
  30   -99.90      -99.90      -99.90      -99.90      -99.90      -99.90      -99.90      -99.90      -99.90      -99.90    
       -99.90      -99.90      -99.90      -99.90      -99.90      -99.90      -99.90      -99.90      -99.90      -99.90    
       -99.90      -99.90      -99.90      -99.90      -99.90      -99.90      -99.90      -99.90      -99.90      -99.90    
       -99.90      -99.90      -99.90      -99.90      -99.90      -99.90      -99.90      -99.90      -99.90      -99.90    
  31   -99.90      -99.90      -99.90      -99.90      -99.90      -99.90      -99.90      -99.90      -99.90      -99.90    
       -99.90      -99.90      -99.90      -99.90      -99.90      -99.90      -99.90      -99.90      -99.90      -99.90    
       -99.90      -99.90      -99.90      -99.90      -99.90      -99.90      -99.90      -99.90      -99.90      -99.90    
       -99.90      -99.90      -99.90      -99.90      -99.90      -99.90      -99.90      -99.90      -99.90      -99.90    
  32   -99.90      -99.90      -99.90      -99.90      -99.90      -99.90      -99.90      -99.90      -99.90      -99.90    
       -99.90      -99.90      -99.90      -99.90      -99.90      -99.90      -99.90      -99.90      -99.90      -99.90    
       -99.90      -99.90      -99.90      -99.90      -99.90      -99.90      -99.90      -99.90      -99.90      -99.90    
       -99.90      -99.90      -99.90      -99.90      -99.90      -99.90      -99.90      -99.90      -99.90      -99.90    
  33   -99.90      -99.90      -99.90      -99.90      -99.90      -99.90      -99.90      -99.90      -99.90      -99.90    
       -99.90      -99.90      -99.90      -99.90      -99.90      -99.90      -99.90      -99.90      -99.90      -99.90    
       -99.90      -99.90      -99.90      -99.90      -99.90      -99.90      -99.90      -99.90      -99.90      -99.90    
       -99.90      -99.90      -99.90      -99.90      -99.90      -99.90      -99.90      -99.90      -99.90      -99.90    
  34   -99.90      -99.90      -99.90      -99.90      -99.90      -99.90      -99.90      -99.90      -99.90      -99.90    
       -99.90      -99.90      -99.90      -99.90      -99.90      -99.90      -99.90      -99.90      -99.90      -99.90    
       -99.90      -99.90      -99.90      -99.90      -99.90      -99.90      -99.90      -99.90      -99.90      -99.90    
       -99.90      -99.90      -99.90      -99.90      -99.90      -99.90      -99.90      -99.90      -99.90      -99.90    
  35   -99.90      -99.90      -99.90      -99.90      -99.90      -99.90      -99.90      -99.90      -99.90      -99.90    
       -99.90      -99.90      -99.90      -99.90      -99.90      -99.90      -99.90      -99.90      -99.90      -99.90    
       -99.90      -99.90      -99.90      -99.90      -99.90      -99.90      -99.90      -99.90      -99.90      -99.90    
       -99.90      -99.90      -99.90      -99.90      -99.90      -99.90      -99.90      -99.90      -99.90      -99.90    
  36   -99.90      -99.90      -99.90      -99.90      -99.90      -99.90      -99.90      -99.90      -99.90      -99.90    
       -99.90      -99.90      -99.90      -99.90      -99.90      -99.90      -99.90      -99.90      -99.90      -99.90    
       -99.90      -99.90      -99.90      -99.90      -99.90      -99.90      -99.90      -99.90      -99.90      -99.90    
       -99.90      -99.90      -99.90      -99.90      -99.90      -99.90      -99.90      -99.90      -99.90      -99.90    
  37   -99.90      -99.90      -99.90      -99.90      -99.90      -99.90      -99.90      -99.90      -99.90      -99.90    
       -99.90      -99.90      -99.90      -99.90      -99.90      -99.90      -99.90      -99.90      -99.90      -99.90    
       -99.90      -99.90      -99.90      -99.90      -99.90      -99.90      -99.90      -99.90      -99.90      -99.90    
       -99.90      -99.90      -99.90      -99.90      -99.90      -99.90      -99.90      -99.90      -99.90      -99.90    
  38   -99.90      -99.90      -99.90      -99.90      -99.90      -99.90      -99.90      -99.90      -99.90      -99.90    
       -99.90      -99.90      -99.90      -99.90      -99.90      -99.90      -99.90      -99.90      -99.90      -99.90    
       -99.90      -99.90      -99.90      -99.90      -99.90      -99.90      -99.90      -99.90      -99.90      -99.90    
       -99.90      -99.90      -99.90      -99.90      -99.90      -99.90      -99.90      -99.90      -99.90      -99.90    
  39   -99.90      -99.90      -99.90      -99.90      -99.90      -99.90      -99.90      -99.90      -99.90      -99.90    
       -99.90      -99.90      -99.90      -99.90      -99.90      -99.90      -99.90      -99.90      -99.90      -99.90    
       -99.90      -99.90      -99.90      -99.90      -99.90      -99.90      -99.90      -99.90      -99.90      -99.90    
       -99.90      -99.90      -99.90      -99.90      -99.90      -99.90      -99.90      -99.90      -99.90      -99.90    
  40   -99.90      -99.90      -99.90      -99.90      -99.90      -99.90      -99.90      -99.90      -99.90      -99.90    
       -99.90      -99.90      -99.90      -99.90      -99.90      -99.90      -99.90      -99.90      -99.90      -99.90    
       -99.90      -99.90      -99.90      -99.90      -99.90      -99.90      -99.90      -99.90      -99.90      -99.90    
       -99.90      -99.90      -99.90      -99.90      -99.90      -99.90      -99.90      -99.90      -99.90      -99.90    
1
              HEAD IN LAYER   3 AT END OF TIME STEP   1 IN STRESS PERIOD    1
  ---------------------------------------------------------------------------

            1           2           3           4           5           6           7           8           9          10
           11          12          13          14          15          16          17          18          19          20
           21          22          23          24          25          26          27          28          29          30
           31          32          33          34          35          36          37          38          39          40
 ........................................................................................................................
   1   -99.90      -99.90      -99.90      -99.90      -99.90      -99.90      -99.90      -99.90      -99.90      -99.90    
       -99.90      -99.90      -99.90      -99.90      -99.90      -99.90      -99.90      -99.90      -99.90      -99.90    
       -99.90      -99.90      -99.90      -99.90      -99.90      -99.90      -99.90      -99.90      -99.90      -99.90    
       -99.90      -99.90      -99.90      -99.90      -99.90      -99.90      -99.90      -99.90      -99.90      -99.90    
   2   -99.90      -99.90      -99.90      -99.90      -99.90      -99.90      -99.90      -99.90      -99.90      -99.90    
       -99.90      -99.90      -99.90      -99.90      -99.90      -99.90      -99.90      -99.90      -99.90      -99.90    
       -99.90      -99.90      -99.90      -99.90      -99.90      -99.90      -99.90      -99.90      -99.90      -99.90    
       -99.90      -99.90      -99.90      -99.90      -99.90      -99.90      -99.90      -99.90      -99.90      -99.90    
   3   -99.90      -99.90      -99.90      -99.90      -99.90      -99.90      -99.90      -99.90      -99.90      -99.90    
       -99.90      -99.90      -99.90      -99.90      -99.90      -99.90      -99.90      -99.90      -99.90      -99.90    
       -99.90      -99.90      -99.90      -99.90      -99.90      -99.90      -99.90      -99.90      -99.90      -99.90    
       -99.90      -99.90      -99.90      -99.90      -99.90      -99.90      -99.90      -99.90      -99.90      -99.90    
   4   -99.90      -99.90      -99.90      -99.90      -99.90      -99.90      -99.90      -99.90      -99.90      -99.90    
       -99.90      -99.90      -99.90      -99.90      -99.90      -99.90      -99.90      -99.90      -99.90      -99.90    
       -99.90      -99.90      -99.90      -99.90      -99.90      -99.90      -99.90      -99.90      -99.90      -99.90    
       -99.90      -99.90      -99.90      -99.90      -99.90      -99.90      -99.90      -99.90      -99.90      -99.90    
   5   -99.90      -99.90      -99.90      -99.90      -99.90      -99.90      -99.90      -99.90      -99.90      -99.90    
       -99.90      -99.90      -99.90      -99.90      -99.90      -99.90      -99.90      -99.90      -99.90      -99.90    
       -99.90      -99.90      -99.90      -99.90      -99.90      -99.90      -99.90      -99.90      -99.90      -99.90    
       -99.90      -99.90      -99.90      -99.90      -99.90      -99.90      -99.90      -99.90      -99.90      -99.90    
   6   -99.90      -99.90      -99.90      -99.90      -99.90      -99.90      -99.90      -99.90      -99.90      -99.90    
       -99.90      -99.90      -99.90      -99.90      -99.90      -99.90      -99.90      -99.90      -99.90      -99.90    
       -99.90      -99.90      -99.90      -99.90      -99.90      -99.90      -99.90      -99.90      -99.90      -99.90    
       -99.90      -99.90      -99.90      -99.90      -99.90      -99.90      -99.90      -99.90      -99.90      -99.90    
   7   -99.90      -99.90      -99.90      -99.90      -99.90      -99.90      -99.90      -99.90      -99.90      -99.90    
       -99.90      -99.90      -99.90      -99.90      -99.90      -99.90      -99.90      -99.90      -99.90      -99.90    
       -99.90      -99.90      -99.90      -99.90      -99.90      -99.90      -99.90      -99.90      -99.90      -99.90    
       -99.90      -99.90      -99.90      -99.90      -99.90      -99.90      -99.90      -99.90      -99.90      -99.90    
   8   -99.90      -99.90      -99.90      -99.90      -99.90      -99.90      -99.90      -99.90      -99.90      -99.90    
       -99.90      -99.90      -99.90      -99.90      -99.90      -99.90      -99.90      -99.90      -99.90      -99.90    
       -99.90      -99.90      -99.90      -99.90      -99.90      -99.90      -99.90      -99.90      -99.90      -99.90    
       -99.90      -99.90      -99.90      -99.90      -99.90      -99.90      -99.90      -99.90      -99.90      -99.90    
   9   -99.90      -99.90      -99.90      -99.90      -99.90      -99.90      -99.90      -99.90      -99.90      -99.90    
       -99.90      -99.90      -99.90      -99.90      -99.90      -99.90      -99.90      -99.90      -99.90      -99.90    
       -99.90      -99.90      -99.90      -99.90      -99.90      -99.90      -99.90      -99.90      -99.90      -99.90    
       -99.90      -99.90      -99.90      -99.90      -99.90      -99.90      -99.90      -99.90      -99.90      -99.90    
  10   -99.90      -99.90      -99.90      -99.90      -99.90      -99.90      -99.90      -99.90      -99.90      -99.90    
       -99.90      -99.90      -99.90      -99.90      -99.90      -99.90      -99.90      -99.90      -99.90      -99.90    
       -99.90      -99.90      -99.90      -99.90      -99.90      -99.90      -99.90      -99.90      -99.90      -99.90    
       -99.90      -99.90      -99.90      -99.90      -99.90      -99.90      -99.90      -99.90      -99.90      -99.90    
  11   -99.90      -99.90      -99.90      -99.90      -99.90      -99.90      -99.90      -99.90      -99.90      -99.90    
       -99.90      -99.90      -99.90      -99.90      -99.90      -99.90      -99.90      -99.90      -99.90      -99.90    
       -99.90      -99.90      -99.90      -99.90      -99.90      -99.90      -99.90      -99.90      -99.90      -99.90    
       -99.90      -99.90      -99.90      -99.90      -99.90      -99.90      -99.90      -99.90      -99.90      -99.90    
  12   -99.90      -99.90      -99.90      -99.90      -99.90      -99.90      -99.90      -99.90      -99.90      -99.90    
       -99.90      -99.90      -99.90      -99.90      -99.90      -99.90      -99.90      -99.90      -99.90      -99.90    
       -99.90      -99.90      -99.90      -99.90      -99.90      -99.90      -99.90      -99.90      -99.90      -99.90    
       -99.90      -99.90      -99.90      -99.90      -99.90      -99.90      -99.90      -99.90      -99.90      -99.90    
  13   -99.90      -99.90      -99.90      -99.90      -99.90      -99.90      -99.90      -99.90      -99.90      -99.90    
       -99.90      -99.90      -99.90      -99.90      -99.90      -99.90      -99.90      -99.90      -99.90      -99.90    
       -99.90      -99.90      -99.90      -99.90      -99.90      -99.90      -99.90      -99.90      -99.90      -99.90    
       -99.90      -99.90      -99.90      -99.90      -99.90      -99.90      -99.90      -99.90      -99.90      -99.90    
  14   -99.90      -99.90      -99.90      -99.90      -99.90      -99.90      -99.90      -99.90      -99.90      -99.90    
       -99.90      -99.90      -99.90      -99.90      -99.90      -99.90      -99.90      -99.90      -99.90      -99.90    
       -99.90      -99.90      -99.90      -99.90      -99.90      -99.90      -99.90      -99.90      -99.90      -99.90    
       -99.90      -99.90      -99.90      -99.90      -99.90      -99.90      -99.90      -99.90      -99.90      -99.90    
  15   -99.90      -99.90      -99.90      -99.90      -99.90      -99.90      -99.90      -99.90      -99.90      -99.90    
       -99.90      -99.90      -99.90      -99.90      -99.90      -99.90      -99.90      -99.90      -99.90      -99.90    
       -99.90      -99.90      -99.90      -99.90      -99.90      -99.90      -99.90      -99.90      -99.90      -99.90    
       -99.90      -99.90      -99.90      -99.90      -99.90      -99.90      -99.90      -99.90      -99.90      -99.90    
  16   -99.90      -99.90      -99.90      -99.90      -99.90      -99.90      -99.90      -99.90      -99.90      -99.90    
       -99.90      -99.90      -99.90      -99.90      -99.90      -99.90      -99.90      -99.90      -99.90      -99.90    
       -99.90      -99.90      -99.90      -99.90      -99.90      -99.90      -99.90      -99.90      -99.90      -99.90    
       -99.90      -99.90      -99.90      -99.90      -99.90      -99.90      -99.90      -99.90      -99.90      -99.90    
  17   -99.90      -99.90      -99.90      -99.90      -99.90      -99.90      -99.90      -99.90      -99.90      -99.90    
       -99.90      -99.90      -99.90      -99.90      -99.90      -99.90      -99.90      -99.90      -99.90      -99.90    
       -99.90      -99.90      -99.90      -99.90      -99.90      -99.90      -99.90      -99.90      -99.90      -99.90    
       -99.90      -99.90      -99.90      -99.90      -99.90      -99.90      -99.90      -99.90      -99.90      -99.90    
  18   -99.90      -99.90      -99.90      -99.90      -99.90      -99.90      -99.90      -99.90      -99.90      -99.90    
       -99.90      -99.90      -99.90      -99.90      -99.90      -99.90      -99.90      -99.90      -99.90      -99.90    
       -99.90      -99.90      -99.90      -99.90      -99.90      -99.90      -99.90      -99.90      -99.90      -99.90    
       -99.90      -99.90      -99.90      -99.90      -99.90      -99.90      -99.90      -99.90      -99.90      -99.90    
  19   -99.90      -99.90      -99.90      -99.90      -99.90      -99.90      -99.90      -99.90      -99.90      -99.90    
       -99.90      -99.90      -99.90      -99.90      -99.90      -99.90      -99.90      -99.90      -99.90      -99.90    
       -99.90      -99.90      -99.90      -99.90      -99.90      -99.90      -99.90      -99.90      -99.90      -99.90    
       -99.90      -99.90      -99.90      -99.90      -99.90      -99.90      -99.90      -99.90      -99.90      -99.90    
  20   -99.90      -99.90      -99.90      -99.90      -99.90      -99.90      -99.90      -99.90      -99.90      -99.90    
       -99.90      -99.90      -99.90      -99.90      -99.90      -99.90      -99.90      -99.90      -99.90      -99.90    
       -99.90      -99.90      -99.90      -99.90      -99.90      -99.90      -99.90      -99.90      -99.90      -99.90    
       -99.90      -99.90      -99.90      -99.90      -99.90      -99.90      -99.90      -99.90      -99.90      -99.90    
  21   -99.90      -99.90      -99.90      -99.90      -99.90      -99.90      -99.90      -99.90      -99.90      -99.90    
       -99.90      -99.90      -99.90      -99.90      -99.90      -99.90      -99.90      -99.90      -99.90      -99.90    
       -99.90      -99.90      -99.90      -99.90      -99.90      -99.90      -99.90      -99.90      -99.90      -99.90    
       -99.90      -99.90      -99.90      -99.90      -99.90      -99.90      -99.90      -99.90      -99.90      -99.90    
  22   -99.90      -99.90      -99.90      -99.90      -99.90      -99.90      -99.90      -99.90      -99.90      -99.90    
       -99.90      -99.90      -99.90      -99.90      -99.90      -99.90      -99.90      -99.90      -99.90      -99.90    
       -99.90      -99.90      -99.90      -99.90      -99.90      -99.90      -99.90      -99.90      -99.90      -99.90    
       -99.90      -99.90      -99.90      -99.90      -99.90      -99.90      -99.90      -99.90      -99.90      -99.90    
  23   -99.90      -99.90      -99.90      -99.90      -99.90      -99.90      -99.90      -99.90      -99.90      -99.90    
       -99.90      -99.90      -99.90      -99.90      -99.90      -99.90      -99.90      -99.90      -99.90      -99.90    
       -99.90      -99.90      -99.90      -99.90      -99.90      -99.90      -99.90      -99.90      -99.90      -99.90    
       -99.90      -99.90      -99.90      -99.90      -99.90      -99.90      -99.90      -99.90      -99.90      -99.90    
  24   -99.90      -99.90      -99.90      -99.90      -99.90      -99.90      -99.90      -99.90      -99.90      -99.90    
       -99.90      -99.90      -99.90      -99.90      -99.90      -99.90      -99.90      -99.90      -99.90      -99.90    
       -99.90      -99.90      -99.90      -99.90      -99.90      -99.90      -99.90      -99.90      -99.90      -99.90    
       -99.90      -99.90      -99.90      -99.90      -99.90      -99.90      -99.90      -99.90      -99.90      -99.90    
  25   -99.90      -99.90      -99.90      -99.90      -99.90      -99.90      -99.90      -99.90      -99.90      -99.90    
       -99.90      -99.90      -99.90      -99.90      -99.90      -99.90      -99.90      -99.90      -99.90      -99.90    
       -99.90      -99.90      -99.90      -99.90      -99.90      -99.90      -99.90      -99.90      -99.90      -99.90    
       -99.90      -99.90      -99.90      -99.90      -99.90      -99.90      -99.90      -99.90      -99.90      -99.90    
  26   -99.90      -99.90      -99.90      -99.90      -99.90      -99.90      -99.90      -99.90      -99.90      -99.90    
       -99.90      -99.90      -99.90      -99.90      -99.90      -99.90      -99.90      -99.90      -99.90      -99.90    
       -99.90      -99.90      -99.90      -99.90      -99.90      -99.90      -99.90      -99.90      -99.90      -99.90    
       -99.90      -99.90      -99.90      -99.90      -99.90      -99.90      -99.90      -99.90      -99.90      -99.90    
  27   -99.90      -99.90      -99.90      -99.90      -99.90      -99.90      -99.90      -99.90      -99.90      -99.90    
       -99.90      -99.90      -99.90      -99.90      -99.90      -99.90      -99.90      -99.90      -99.90      -99.90    
       -99.90      -99.90      -99.90      -99.90      -99.90      -99.90      -99.90      -99.90      -99.90      -99.90    
       -99.90      -99.90      -99.90      -99.90      -99.90      -99.90      -99.90      -99.90      -99.90      -99.90    
  28   -99.90      -99.90      -99.90      -99.90      -99.90      -99.90      -99.90      -99.90      -99.90      -99.90    
       -99.90      -99.90      -99.90      -99.90      -99.90      -99.90      -99.90      -99.90      -99.90      -99.90    
       -99.90      -99.90      -99.90      -99.90      -99.90      -99.90      -99.90      -99.90      -99.90      -99.90    
       -99.90      -99.90      -99.90      -99.90      -99.90      -99.90      -99.90      -99.90      -99.90      -99.90    
  29   -99.90      -99.90      -99.90      -99.90      -99.90      -99.90      -99.90      -99.90      -99.90      -99.90    
       -99.90      -99.90      -99.90      -99.90      -99.90      -99.90      -99.90      -99.90      -99.90      -99.90    
       -99.90      -99.90      -99.90      -99.90      -99.90      -99.90      -99.90      -99.90      -99.90      -99.90    
       -99.90      -99.90      -99.90      -99.90      -99.90      -99.90      -99.90      -99.90      -99.90      -99.90    
  30   -99.90      -99.90      -99.90      -99.90      -99.90      -99.90      -99.90      -99.90      -99.90      -99.90    
       -99.90      -99.90      -99.90      -99.90      -99.90      -99.90      -99.90      -99.90      -99.90      -99.90    
       -99.90      -99.90      -99.90      -99.90      -99.90      -99.90      -99.90      -99.90      -99.90      -99.90    
       -99.90      -99.90      -99.90      -99.90      -99.90      -99.90      -99.90      -99.90      -99.90      -99.90    
  31   -99.90      -99.90      -99.90      -99.90      -99.90      -99.90      -99.90      -99.90      -99.90      -99.90    
       -99.90      -99.90      -99.90      -99.90      -99.90      -99.90      -99.90      -99.90      -99.90      -99.90    
       -99.90      -99.90      -99.90      -99.90      -99.90      -99.90      -99.90      -99.90      -99.90      -99.90    
       -99.90      -99.90      -99.90      -99.90      -99.90      -99.90      -99.90      -99.90      -99.90      -99.90    
  32   -99.90      -99.90      -99.90      -99.90      -99.90      -99.90      -99.90      -99.90      -99.90      -99.90    
       -99.90      -99.90      -99.90      -99.90      -99.90      -99.90      -99.90      -99.90      -99.90      -99.90    
       -99.90      -99.90      -99.90      -99.90      -99.90      -99.90      -99.90      -99.90      -99.90      -99.90    
       -99.90      -99.90      -99.90      -99.90      -99.90      -99.90      -99.90      -99.90      -99.90      -99.90    
  33   -99.90      -99.90      -99.90      -99.90      -99.90      -99.90      -99.90      -99.90      -99.90      -99.90    
       -99.90      -99.90      -99.90      -99.90      -99.90      -99.90      -99.90      -99.90      -99.90      -99.90    
       -99.90      -99.90      -99.90      -99.90      -99.90      -99.90      -99.90      -99.90      -99.90      -99.90    
       -99.90      -99.90      -99.90      -99.90      -99.90      -99.90      -99.90      -99.90      -99.90      -99.90    
  34   -99.90      -99.90      -99.90      -99.90      -99.90      -99.90      -99.90      -99.90      -99.90      -99.90    
       -99.90      -99.90      -99.90      -99.90      -99.90      -99.90      -99.90      -99.90      -99.90      -99.90    
       -99.90      -99.90      -99.90      -99.90      -99.90      -99.90      -99.90      -99.90      -99.90      -99.90    
       -99.90      -99.90      -99.90      -99.90      -99.90      -99.90      -99.90      -99.90      -99.90      -99.90    
  35   -99.90      -99.90      -99.90      -99.90      -99.90      -99.90      -99.90      -99.90      -99.90      -99.90    
       -99.90      -99.90      -99.90      -99.90      -99.90      -99.90      -99.90      -99.90      -99.90      -99.90    
       -99.90      -99.90      -99.90      -99.90      -99.90      -99.90      -99.90      -99.90      -99.90      -99.90    
       -99.90      -99.90      -99.90      -99.90      -99.90      -99.90      -99.90      -99.90      -99.90      -99.90    
  36   -99.90      -99.90      -99.90      -99.90      -99.90      -99.90      -99.90      -99.90      -99.90      -99.90    
       -99.90      -99.90      -99.90      -99.90      -99.90      -99.90      -99.90      -99.90      -99.90      -99.90    
       -99.90      -99.90      -99.90      -99.90      -99.90      -99.90      -99.90      -99.90      -99.90      -99.90    
       -99.90      -99.90      -99.90      -99.90      -99.90      -99.90      -99.90      -99.90      -99.90      -99.90    
  37   -99.90      -99.90      -99.90      -99.90      -99.90      -99.90      -99.90      -99.90      -99.90      -99.90    
       -99.90      -99.90      -99.90      -99.90      -99.90      -99.90      -99.90      -99.90      -99.90      -99.90    
       -99.90      -99.90      -99.90      -99.90      -99.90      -99.90      -99.90      -99.90      -99.90      -99.90    
       -99.90      -99.90      -99.90      -99.90      -99.90      -99.90      -99.90      -99.90      -99.90      -99.90    
  38   -99.90      -99.90      -99.90      -99.90      -99.90      -99.90      -99.90      -99.90      -99.90      -99.90    
       -99.90      -99.90      -99.90      -99.90      -99.90      -99.90      -99.90      -99.90      -99.90      -99.90    
       -99.90      -99.90      -99.90      -99.90      -99.90      -99.90      -99.90      -99.90      -99.90      -99.90    
       -99.90      -99.90      -99.90      -99.90      -99.90      -99.90      -99.90      -99.90      -99.90      -99.90    
  39   -99.90      -99.90      -99.90      -99.90      -99.90      -99.90      -99.90      -99.90      -99.90      -99.90    
       -99.90      -99.90      -99.90      -99.90      -99.90      -99.90      -99.90      -99.90      -99.90      -99.90    
       -99.90      -99.90      -99.90      -99.90      -99.90      -99.90      -99.90      -99.90      -99.90      -99.90    
       -99.90      -99.90      -99.90      -99.90      -99.90      -99.90      -99.90      -99.90      -99.90      -99.90    
  40   -99.90      -99.90      -99.90      -99.90      -99.90      -99.90      -99.90      -99.90      -99.90      -99.90    
       -99.90      -99.90      -99.90      -99.90      -99.90      -99.90      -99.90      -99.90      -99.90      -99.90    
       -99.90      -99.90      -99.90      -99.90      -99.90      -99.90      -99.90      -99.90      -99.90      -99.90    
       -99.90      -99.90      -99.90      -99.90      -99.90      -99.90      -99.90      -99.90      -99.90      -99.90    
1
              HEAD IN LAYER   4 AT END OF TIME STEP   1 IN STRESS PERIOD    1
  ---------------------------------------------------------------------------

            1           2           3           4           5           6           7           8           9          10
           11          12          13          14          15          16          17          18          19          20
           21          22          23          24          25          26          27          28          29          30
           31          32          33          34          35          36          37          38          39          40
 ........................................................................................................................
   1   -99.90      -99.90      -99.90      -99.90      -99.90      -99.90      -99.90      -99.90      -99.90      -99.90    
       -99.90      -99.90      -99.90      -99.90      -99.90      -99.90      -99.90      -99.90      -99.90      -99.90    
       -99.90      -99.90      -99.90      -99.90      -99.90      -99.90      -99.90      -99.90      -99.90      -99.90    
       -99.90      -99.90      -99.90      -99.90      -99.90      -99.90      -99.90      -99.90      -99.90      -99.90    
   2   -99.90      -99.90      -99.90      -99.90      -99.90      -99.90      -99.90      -99.90      -99.90      -99.90    
       -99.90      -99.90      -99.90      -99.90      -99.90      -99.90      -99.90      -99.90      -99.90      -99.90    
       -99.90      -99.90      -99.90      -99.90      -99.90      -99.90      -99.90      -99.90      -99.90      -99.90    
       -99.90      -99.90      -99.90      -99.90      -99.90      -99.90      -99.90      -99.90      -99.90      -99.90    
   3   -99.90      -99.90      -99.90      -99.90      -99.90      -99.90      -99.90      -99.90      -99.90      -99.90    
       -99.90      -99.90      -99.90      -99.90      -99.90      -99.90      -99.90      -99.90      -99.90      -99.90    
       -99.90      -99.90      -99.90      -99.90      -99.90      -99.90      -99.90      -99.90      -99.90      -99.90    
       -99.90      -99.90      -99.90      -99.90      -99.90      -99.90      -99.90      -99.90      -99.90      -99.90    
   4   -99.90      -99.90      -99.90      -99.90      -99.90      -99.90      -99.90      -99.90      -99.90      -99.90    
       -99.90      -99.90      -99.90      -99.90      -99.90      -99.90      -99.90      -99.90      -99.90      -99.90    
       -99.90      -99.90      -99.90      -99.90      -99.90      -99.90      -99.90      -99.90      -99.90      -99.90    
       -99.90      -99.90      -99.90      -99.90      -99.90      -99.90      -99.90      -99.90      -99.90      -99.90    
   5   -99.90      -99.90      -99.90      -99.90      -99.90      -99.90      -99.90      -99.90      -99.90      -99.90    
       -99.90      -99.90      -99.90      -99.90      -99.90      -99.90      -99.90      -99.90      -99.90      -99.90    
       -99.90      -99.90      -99.90      -99.90      -99.90      -99.90      -99.90      -99.90      -99.90      -99.90    
       -99.90      -99.90      -99.90      -99.90      -99.90      -99.90      -99.90      -99.90      -99.90      -99.90    
   6   -99.90      -99.90      -99.90      -99.90      -99.90      -99.90      -99.90      -99.90      -99.90      -99.90    
       -99.90      -99.90      -99.90      -99.90      -99.90      -99.90      -99.90      -99.90      -99.90      -99.90    
       -99.90      -99.90      -99.90      -99.90      -99.90      -99.90      -99.90      -99.90      -99.90      -99.90    
       -99.90      -99.90      -99.90      -99.90      -99.90      -99.90      -99.90      -99.90      -99.90      -99.90    
   7   -99.90      -99.90      -99.90      -99.90      -99.90      -99.90      -99.90      -99.90      -99.90      -99.90    
       -99.90      -99.90      -99.90      -99.90      -99.90      -99.90      -99.90      -99.90      -99.90      -99.90    
       -99.90      -99.90      -99.90      -99.90      -99.90      -99.90      -99.90      -99.90      -99.90      -99.90    
       -99.90      -99.90      -99.90      -99.90      -99.90      -99.90      -99.90      -99.90      -99.90      -99.90    
   8   -99.90      -99.90      -99.90      -99.90      -99.90      -99.90      -99.90      -99.90      -99.90      -99.90    
       -99.90      -99.90      -99.90      -99.90      -99.90      -99.90      -99.90      -99.90      -99.90      -99.90    
       -99.90      -99.90      -99.90      -99.90      -99.90      -99.90      -99.90      -99.90      -99.90      -99.90    
       -99.90      -99.90      -99.90      -99.90      -99.90      -99.90      -99.90      -99.90      -99.90      -99.90    
   9   -99.90      -99.90      -99.90      -99.90      -99.90      -99.90      -99.90      -99.90      -99.90      -99.90    
       -99.90      -99.90      -99.90      -99.90      -99.90      -99.90      -99.90      -99.90      -99.90      -99.90    
       -99.90      -99.90      -99.90      -99.90      -99.90      -99.90      -99.90      -99.90      -99.90      -99.90    
       -99.90      -99.90      -99.90      -99.90      -99.90      -99.90      -99.90      -99.90      -99.90      -99.90    
  10   -99.90      -99.90      -99.90      -99.90      -99.90      -99.90      -99.90      -99.90      -99.90      -99.90    
       -99.90      -99.90      -99.90      -99.90      -99.90      -99.90      -99.90      -99.90      -99.90      -99.90    
       -99.90      -99.90      -99.90      -99.90      -99.90      -99.90      -99.90      -99.90      -99.90      -99.90    
       -99.90      -99.90      -99.90      -99.90      -99.90      -99.90      -99.90      -99.90      -99.90      -99.90    
  11   -99.90      -99.90      -99.90      -99.90      -99.90      -99.90      -99.90      -99.90      -99.90      -99.90    
       -99.90      -99.90      -99.90      -99.90      -99.90      -99.90      -99.90      -99.90      -99.90      -99.90    
       -99.90      -99.90      -99.90      -99.90      -99.90      -99.90      -99.90      -99.90      -99.90      -99.90    
       -99.90      -99.90      -99.90      -99.90      -99.90      -99.90      -99.90      -99.90      -99.90      -99.90    
  12   -99.90      -99.90      -99.90      -99.90      -99.90      -99.90      -99.90      -99.90      -99.90      -99.90    
       -99.90      -99.90      -99.90      -99.90      -99.90      -99.90      -99.90      -99.90      -99.90      -99.90    
       -99.90      -99.90      -99.90      -99.90      -99.90      -99.90      -99.90      -99.90      -99.90      -99.90    
       -99.90      -99.90      -99.90      -99.90      -99.90      -99.90      -99.90      -99.90      -99.90      -99.90    
  13   -99.90      -99.90      -99.90      -99.90      -99.90      -99.90      -99.90      -99.90      -99.90      -99.90    
       -99.90      -99.90      -99.90      -99.90      -99.90      -99.90      -99.90      -99.90      -99.90      -99.90    
       -99.90      -99.90      -99.90      -99.90      -99.90      -99.90      -99.90      -99.90      -99.90      -99.90    
       -99.90      -99.90      -99.90      -99.90      -99.90      -99.90      -99.90      -99.90      -99.90      -99.90    
  14   -99.90      -99.90      -99.90      -99.90      -99.90      -99.90      -99.90      -99.90      -99.90      -99.90    
       -99.90      -99.90      -99.90      -99.90      -99.90      -99.90      -99.90      -99.90      -99.90      -99.90    
       -99.90      -99.90      -99.90      -99.90      -99.90      -99.90      -99.90      -99.90      -99.90      -99.90    
       -99.90      -99.90      -99.90      -99.90      -99.90      -99.90      -99.90      -99.90      -99.90      -99.90    
  15   -99.90      -99.90      -99.90      -99.90      -99.90      -99.90      -99.90      -99.90      -99.90      -99.90    
       -99.90      -99.90      -99.90      -99.90      -99.90      -99.90      -99.90      -99.90      -99.90      -99.90    
       -99.90      -99.90      -99.90      -99.90      -99.90      -99.90      -99.90      -99.90      -99.90      -99.90    
       -99.90      -99.90      -99.90      -99.90      -99.90      -99.90      -99.90      -99.90      -99.90      -99.90    
  16   -99.90      -99.90      -99.90      -99.90      -99.90      -99.90      -99.90      -99.90      -99.90      -99.90    
       -99.90      -99.90      -99.90      -99.90      -99.90      -99.90      -99.90      -99.90      -99.90      -99.90    
       -99.90      -99.90      -99.90      -99.90      -99.90      -99.90      -99.90      -99.90      -99.90      -99.90    
       -99.90      -99.90      -99.90      -99.90      -99.90      -99.90      -99.90      -99.90      -99.90      -99.90    
  17   -99.90      -99.90      -99.90      -99.90      -99.90      -99.90      -99.90      -99.90      -99.90      -99.90    
       -99.90      -99.90      -99.90      -99.90      -99.90      -99.90      -99.90      -99.90      -99.90      -99.90    
       -99.90      -99.90      -99.90      -99.90      -99.90      -99.90      -99.90      -99.90      -99.90      -99.90    
       -99.90      -99.90      -99.90      -99.90      -99.90      -99.90      -99.90      -99.90      -99.90      -99.90    
  18   -99.90      -99.90      -99.90      -99.90      -99.90      -99.90      -99.90      -99.90      -99.90      -99.90    
       -99.90      -99.90      -99.90      -99.90      -99.90      -99.90      -99.90      -99.90      -99.90      -99.90    
       -99.90      -99.90      -99.90      -99.90      -99.90      -99.90      -99.90      -99.90      -99.90      -99.90    
       -99.90      -99.90      -99.90      -99.90      -99.90      -99.90      -99.90      -99.90      -99.90      -99.90    
  19   -99.90      -99.90      -99.90      -99.90      -99.90      -99.90      -99.90      -99.90      -99.90      -99.90    
       -99.90      -99.90      -99.90      -99.90      -99.90      -99.90      -99.90      -99.90      -99.90      -99.90    
       -99.90      -99.90      -99.90      -99.90      -99.90      -99.90      -99.90      -99.90      -99.90      -99.90    
       -99.90      -99.90      -99.90      -99.90      -99.90      -99.90      -99.90      -99.90      -99.90      -99.90    
  20   -99.90      -99.90      -99.90      -99.90      -99.90      -99.90      -99.90      -99.90      -99.90      -99.90    
       -99.90      -99.90      -99.90      -99.90      -99.90      -99.90      -99.90      -99.90      -99.90      -99.90    
       -99.90      -99.90      -99.90      -99.90      -99.90      -99.90      -99.90      -99.90      -99.90      -99.90    
       -99.90      -99.90      -99.90      -99.90      -99.90      -99.90      -99.90      -99.90      -99.90      -99.90    
  21   -99.90      -99.90      -99.90      -99.90      -99.90      -99.90      -99.90      -99.90      -99.90      -99.90    
       -99.90      -99.90      -99.90      -99.90      -99.90      -99.90      -99.90      -99.90      -99.90      -99.90    
       -99.90      -99.90      -99.90      -99.90      -99.90      -99.90      -99.90      -99.90      -99.90      -99.90    
       -99.90      -99.90      -99.90      -99.90      -99.90      -99.90      -99.90      -99.90      -99.90      -99.90    
  22   -99.90      -99.90      -99.90      -99.90      -99.90      -99.90      -99.90      -99.90      -99.90      -99.90    
       -99.90      -99.90      -99.90      -99.90      -99.90      -99.90      -99.90      -99.90      -99.90      -99.90    
       -99.90      -99.90      -99.90      -99.90      -99.90      -99.90      -99.90      -99.90      -99.90      -99.90    
       -99.90      -99.90      -99.90      -99.90      -99.90      -99.90      -99.90      -99.90      -99.90      -99.90    
  23   -99.90      -99.90      -99.90      -99.90      -99.90      -99.90      -99.90      -99.90      -99.90      -99.90    
       -99.90      -99.90      -99.90      -99.90      -99.90      -99.90      -99.90      -99.90      -99.90      -99.90    
       -99.90      -99.90      -99.90      -99.90      -99.90      -99.90      -99.90      -99.90      -99.90      -99.90    
       -99.90      -99.90      -99.90      -99.90      -99.90      -99.90      -99.90      -99.90      -99.90      -99.90    
  24   -99.90      -99.90      -99.90      -99.90      -99.90      -99.90      -99.90      -99.90      -99.90      -99.90    
       -99.90      -99.90      -99.90      -99.90      -99.90      -99.90      -99.90      -99.90      -99.90      -99.90    
       -99.90      -99.90      -99.90      -99.90      -99.90      -99.90      -99.90      -99.90      -99.90      -99.90    
       -99.90      -99.90      -99.90      -99.90      -99.90      -99.90      -99.90      -99.90      -99.90      -99.90    
  25   -99.90      -99.90      -99.90      -99.90      -99.90      -99.90      -99.90      -99.90      -99.90      -99.90    
       -99.90      -99.90      -99.90      -99.90      -99.90      -99.90      -99.90      -99.90      -99.90      -99.90    
       -99.90      -99.90      -99.90      -99.90      -99.90      -99.90      -99.90      -99.90      -99.90      -99.90    
       -99.90      -99.90      -99.90      -99.90      -99.90      -99.90      -99.90      -99.90      -99.90      -99.90    
  26   -99.90      -99.90      -99.90      -99.90      -99.90      -99.90      -99.90      -99.90      -99.90      -99.90    
       -99.90      -99.90      -99.90      -99.90      -99.90      -99.90      -99.90      -99.90      -99.90      -99.90    
       -99.90      -99.90      -99.90      -99.90      -99.90      -99.90      -99.90      -99.90      -99.90      -99.90    
       -99.90      -99.90      -99.90      -99.90      -99.90      -99.90      -99.90      -99.90      -99.90      -99.90    
  27   -99.90      -99.90      -99.90      -99.90      -99.90      -99.90      -99.90      -99.90      -99.90      -99.90    
       -99.90      -99.90      -99.90      -99.90      -99.90      -99.90      -99.90      -99.90      -99.90      -99.90    
       -99.90      -99.90      -99.90      -99.90      -99.90      -99.90      -99.90      -99.90      -99.90      -99.90    
       -99.90      -99.90      -99.90      -99.90      -99.90      -99.90      -99.90      -99.90      -99.90      -99.90    
  28   -99.90      -99.90      -99.90      -99.90      -99.90      -99.90      -99.90      -99.90      -99.90      -99.90    
       -99.90      -99.90      -99.90      -99.90      -99.90      -99.90      -99.90      -99.90      -99.90      -99.90    
       -99.90      -99.90      -99.90      -99.90      -99.90      -99.90      -99.90      -99.90      -99.90      -99.90    
       -99.90      -99.90      -99.90      -99.90      -99.90      -99.90      -99.90      -99.90      -99.90      -99.90    
  29   -99.90      -99.90      -99.90      -99.90      -99.90      -99.90      -99.90      -99.90      -99.90      -99.90    
       -99.90      -99.90      -99.90      -99.90      -99.90      -99.90      -99.90      -99.90      -99.90      -99.90    
       -99.90      -99.90      -99.90      -99.90      -99.90      -99.90      -99.90      -99.90      -99.90      -99.90    
       -99.90      -99.90      -99.90      -99.90      -99.90      -99.90      -99.90      -99.90      -99.90      -99.90    
  30   -99.90      -99.90      -99.90      -99.90      -99.90      -99.90      -99.90      -99.90      -99.90      -99.90    
       -99.90      -99.90      -99.90      -99.90      -99.90      -99.90      -99.90      -99.90      -99.90      -99.90    
       -99.90      -99.90      -99.90      -99.90      -99.90      -99.90      -99.90      -99.90      -99.90      -99.90    
       -99.90      -99.90      -99.90      -99.90      -99.90      -99.90      -99.90      -99.90      -99.90      -99.90    
  31   -99.90      -99.90      -99.90      -99.90      -99.90      -99.90      -99.90      -99.90      -99.90      -99.90    
       -99.90      -99.90      -99.90      -99.90      -99.90      -99.90      -99.90      -99.90      -99.90      -99.90    
       -99.90      -99.90      -99.90      -99.90      -99.90      -99.90      -99.90      -99.90      -99.90      -99.90    
       -99.90      -99.90      -99.90      -99.90      -99.90      -99.90      -99.90      -99.90      -99.90      -99.90    
  32   -99.90      -99.90      -99.90      -99.90      -99.90      -99.90      -99.90      -99.90      -99.90      -99.90    
       -99.90      -99.90      -99.90      -99.90      -99.90      -99.90      -99.90      -99.90      -99.90      -99.90    
       -99.90      -99.90      -99.90      -99.90      -99.90      -99.90      -99.90      -99.90      -99.90      -99.90    
       -99.90      -99.90      -99.90      -99.90      -99.90      -99.90      -99.90      -99.90      -99.90      -99.90    
  33   -99.90      -99.90      -99.90      -99.90      -99.90      -99.90      -99.90      -99.90      -99.90      -99.90    
       -99.90      -99.90      -99.90      -99.90      -99.90      -99.90      -99.90      -99.90      -99.90      -99.90    
       -99.90      -99.90      -99.90      -99.90      -99.90      -99.90      -99.90      -99.90      -99.90      -99.90    
       -99.90      -99.90      -99.90      -99.90      -99.90      -99.90      -99.90      -99.90      -99.90      -99.90    
  34   -99.90      -99.90      -99.90      -99.90      -99.90      -99.90      -99.90      -99.90      -99.90      -99.90    
       -99.90      -99.90      -99.90      -99.90      -99.90      -99.90      -99.90      -99.90      -99.90      -99.90    
       -99.90      -99.90      -99.90      -99.90      -99.90      -99.90      -99.90      -99.90      -99.90      -99.90    
       -99.90      -99.90      -99.90      -99.90      -99.90      -99.90      -99.90      -99.90      -99.90      -99.90    
  35   -99.90      -99.90      -99.90      -99.90      -99.90      -99.90      -99.90      -99.90      -99.90      -99.90    
       -99.90      -99.90      -99.90      -99.90      -99.90      -99.90      -99.90      -99.90      -99.90      -99.90    
       -99.90      -99.90      -99.90      -99.90      -99.90      -99.90      -99.90      -99.90      -99.90      -99.90    
       -99.90      -99.90      -99.90      -99.90      -99.90      -99.90      -99.90      -99.90      -99.90      -99.90    
  36   -99.90      -99.90      -99.90      -99.90      -99.90      -99.90      -99.90      -99.90      -99.90      -99.90    
       -99.90      -99.90      -99.90      -99.90      -99.90      -99.90      -99.90      -99.90      -99.90      -99.90    
       -99.90      -99.90      -99.90      -99.90      -99.90      -99.90      -99.90      -99.90      -99.90      -99.90    
       -99.90      -99.90      -99.90      -99.90      -99.90      -99.90      -99.90      -99.90      -99.90      -99.90    
  37   -99.90      -99.90      -99.90      -99.90      -99.90      -99.90      -99.90      -99.90      -99.90      -99.90    
       -99.90      -99.90      -99.90      -99.90      -99.90      -99.90      -99.90      -99.90      -99.90      -99.90    
       -99.90      -99.90      -99.90      -99.90      -99.90      -99.90      -99.90      -99.90      -99.90      -99.90    
       -99.90      -99.90      -99.90      -99.90      -99.90      -99.90      -99.90      -99.90      -99.90      -99.90    
  38   -99.90      -99.90      -99.90      -99.90      -99.90      -99.90      -99.90      -99.90      -99.90      -99.90    
       -99.90      -99.90      -99.90      -99.90      -99.90      -99.90      -99.90      -99.90      -99.90      -99.90    
       -99.90      -99.90      -99.90      -99.90      -99.90      -99.90      -99.90      -99.90      -99.90      -99.90    
       -99.90      -99.90      -99.90      -99.90      -99.90      -99.90      -99.90      -99.90      -99.90      -99.90    
  39   -99.90      -99.90      -99.90      -99.90      -99.90      -99.90      -99.90      -99.90      -99.90      -99.90    
       -99.90      -99.90      -99.90      -99.90      -99.90      -99.90      -99.90      -99.90      -99.90      -99.90    
       -99.90      -99.90      -99.90      -99.90      -99.90      -99.90      -99.90      -99.90      -99.90      -99.90    
       -99.90      -99.90      -99.90      -99.90      -99.90      -99.90      -99.90      -99.90      -99.90      -99.90    
  40   -99.90      -99.90      -99.90      -99.90      -99.90      -99.90      -99.90      -99.90      -99.90      -99.90    
       -99.90      -99.90      -99.90      -99.90      -99.90      -99.90      -99.90      -99.90      -99.90      -99.90    
       -99.90      -99.90      -99.90      -99.90      -99.90      -99.90      -99.90      -99.90      -99.90      -99.90    
       -99.90      -99.90      -99.90      -99.90      -99.90      -99.90      -99.90      -99.90      -99.90      -99.90    
1
              HEAD IN LAYER   5 AT END OF TIME STEP   1 IN STRESS PERIOD    1
  ---------------------------------------------------------------------------

            1           2           3           4           5           6           7           8           9          10
           11          12          13          14          15          16          17          18          19          20
           21          22          23          24          25          26          27          28          29          30
           31          32          33          34          35          36          37          38          39          40
 ........................................................................................................................
   1   -99.90      -99.90      -99.90      -99.90      -99.90      -99.90      -99.90      -99.90      -99.90      -99.90    
       -99.90      -99.90      -99.90      -99.90      -99.90      -99.90      -99.90      -99.90      -99.90      -99.90    
       -99.90      -99.90      -99.90      -99.90      -99.90      -99.90      -99.90      -99.90      -99.90      -99.90    
       -99.90      -99.90      -99.90      -99.90      -99.90      -99.90      -99.90      -99.90      -99.90      -99.90    
   2   -99.90      -99.90      -99.90      -99.90      -99.90      -99.90      -99.90      -99.90      -99.90      -99.90    
       -99.90      -99.90      -99.90      -99.90      -99.90      -99.90      -99.90      -99.90      -99.90      -99.90    
       -99.90      -99.90      -99.90      -99.90      -99.90      -99.90      -99.90      -99.90      -99.90      -99.90    
       -99.90      -99.90      -99.90      -99.90      -99.90      -99.90      -99.90      -99.90      -99.90      -99.90    
   3   -99.90      -99.90      -99.90      -99.90      -99.90      -99.90      -99.90      -99.90      -99.90      -99.90    
       -99.90      -99.90      -99.90      -99.90      -99.90      -99.90      -99.90      -99.90      -99.90      -99.90    
       -99.90      -99.90      -99.90      -99.90      -99.90      -99.90      -99.90      -99.90      -99.90      -99.90    
       -99.90      -99.90      -99.90      -99.90      -99.90      -99.90      -99.90      -99.90      -99.90      -99.90    
   4   -99.90      -99.90      -99.90      -99.90      -99.90      -99.90      -99.90      -99.90      -99.90      -99.90    
       -99.90      -99.90      -99.90      -99.90      -99.90      -99.90      -99.90      -99.90      -99.90      -99.90    
       -99.90      -99.90      -99.90      -99.90      -99.90      -99.90      -99.90      -99.90      -99.90      -99.90    
       -99.90      -99.90      -99.90      -99.90      -99.90      -99.90      -99.90      -99.90      -99.90      -99.90    
   5   -99.90      -99.90      -99.90      -99.90      -99.90      -99.90      -99.90      -99.90      -99.90      -99.90    
       -99.90      -99.90      -99.90      -99.90      -99.90      -99.90      -99.90      -99.90      -99.90      -99.90    
       -99.90      -99.90      -99.90      -99.90      -99.90      -99.90      -99.90      -99.90      -99.90      -99.90    
       -99.90      -99.90      -99.90      -99.90      -99.90      -99.90      -99.90      -99.90      -99.90      -99.90    
   6   -99.90      -99.90      -99.90      -99.90      -99.90      -99.90      -99.90      -99.90      -99.90      -99.90    
       -99.90      -99.90      -99.90      -99.90      -99.90      -99.90      -99.90      -99.90      -99.90      -99.90    
       -99.90      -99.90      -99.90      -99.90      -99.90      -99.90      -99.90      -99.90      -99.90      -99.90    
       -99.90      -99.90      -99.90      -99.90      -99.90      -99.90      -99.90      -99.90      -99.90      -99.90    
   7   -99.90      -99.90      -99.90      -99.90      -99.90      -99.90      -99.90      -99.90      -99.90      -99.90    
       -99.90      -99.90      -99.90      -99.90      -99.90      -99.90      -99.90      -99.90      -99.90      -99.90    
       -99.90      -99.90      -99.90      -99.90      -99.90      -99.90      -99.90      -99.90      -99.90      -99.90    
       -99.90      -99.90      -99.90      -99.90      -99.90      -99.90      -99.90      -99.90      -99.90      -99.90    
   8   -99.90      -99.90      -99.90      -99.90      -99.90      -99.90      -99.90      -99.90      -99.90      -99.90    
       -99.90      -99.90      -99.90      -99.90      -99.90      -99.90      -99.90      -99.90      -99.90      -99.90    
       -99.90      -99.90      -99.90      -99.90      -99.90      -99.90      -99.90      -99.90      -99.90      -99.90    
       -99.90      -99.90      -99.90      -99.90      -99.90      -99.90      -99.90      -99.90      -99.90      -99.90    
   9   -99.90      -99.90      -99.90      -99.90      -99.90      -99.90      -99.90      -99.90      -99.90      -99.90    
       -99.90      -99.90      -99.90      -99.90      -99.90      -99.90      -99.90      -99.90      -99.90      -99.90    
       -99.90      -99.90      -99.90      -99.90      -99.90      -99.90      -99.90      -99.90      -99.90      -99.90    
       -99.90      -99.90      -99.90      -99.90      -99.90      -99.90      -99.90      -99.90      -99.90      -99.90    
  10   -99.90      -99.90      -99.90      -99.90      -99.90      -99.90      -99.90      -99.90      -99.90      -99.90    
       -99.90      -99.90      -99.90      -99.90      -99.90      -99.90      -99.90      -99.90      -99.90      -99.90    
       -99.90      -99.90      -99.90      -99.90      -99.90      -99.90      -99.90      -99.90      -99.90      -99.90    
       -99.90      -99.90      -99.90      -99.90      -99.90      -99.90      -99.90      -99.90      -99.90      -99.90    
  11   -99.90      -99.90      -99.90      -99.90      -99.90      -99.90      -99.90      -99.90      -99.90      -99.90    
       -99.90      -99.90      -99.90      -99.90      -99.90      -99.90      -99.90      -99.90      -99.90      -99.90    
       -99.90      -99.90      -99.90      -99.90      -99.90      -99.90      -99.90      -99.90      -99.90      -99.90    
       -99.90      -99.90      -99.90      -99.90      -99.90      -99.90      -99.90      -99.90      -99.90      -99.90    
  12   -99.90      -99.90      -99.90      -99.90      -99.90      -99.90      -99.90      -99.90      -99.90      -99.90    
       -99.90      -99.90      -99.90      -99.90      -99.90      -99.90      -99.90      -99.90      -99.90      -99.90    
       -99.90      -99.90      -99.90      -99.90      -99.90      -99.90      -99.90      -99.90      -99.90      -99.90    
       -99.90      -99.90      -99.90      -99.90      -99.90      -99.90      -99.90      -99.90      -99.90      -99.90    
  13   -99.90      -99.90      -99.90      -99.90      -99.90      -99.90      -99.90      -99.90      -99.90      -99.90    
       -99.90      -99.90      -99.90      -99.90      -99.90      -99.90      -99.90      -99.90      -99.90      -99.90    
       -99.90      -99.90      -99.90      -99.90      -99.90      -99.90      -99.90      -99.90      -99.90      -99.90    
       -99.90      -99.90      -99.90      -99.90      -99.90      -99.90      -99.90      -99.90      -99.90      -99.90    
  14   -99.90      -99.90      -99.90      -99.90      -99.90      -99.90      -99.90      -99.90      -99.90      -99.90    
       -99.90      -99.90      -99.90      -99.90      -99.90      -99.90      -99.90      -99.90      -99.90      -99.90    
       -99.90      -99.90      -99.90      -99.90      -99.90      -99.90      -99.90      -99.90      -99.90      -99.90    
       -99.90      -99.90      -99.90      -99.90      -99.90      -99.90      -99.90      -99.90      -99.90      -99.90    
  15   -99.90      -99.90      -99.90      -99.90      -99.90      -99.90      -99.90      -99.90      -99.90      -99.90    
       -99.90      -99.90      -99.90      -99.90      -99.90      -99.90      -99.90      -99.90      -99.90      -99.90    
       -99.90      -99.90      -99.90      -99.90      -99.90      -99.90      -99.90      -99.90      -99.90      -99.90    
       -99.90      -99.90      -99.90      -99.90      -99.90      -99.90      -99.90      -99.90      -99.90      -99.90    
  16   -99.90      -99.90      -99.90      -99.90      -99.90      -99.90      -99.90      -99.90      -99.90      -99.90    
       -99.90      -99.90      -99.90      -99.90      -99.90      -99.90      -99.90      -99.90      -99.90      -99.90    
       -99.90      -99.90      -99.90      -99.90      -99.90      -99.90      -99.90      -99.90      -99.90      -99.90    
       -99.90      -99.90      -99.90      -99.90      -99.90      -99.90      -99.90      -99.90      -99.90      -99.90    
  17   -99.90      -99.90      -99.90      -99.90      -99.90      -99.90      -99.90      -99.90      -99.90      -99.90    
       -99.90      -99.90      -99.90      -99.90      -99.90      -99.90      -99.90      -99.90      -99.90      -99.90    
       -99.90      -99.90      -99.90      -99.90      -99.90      -99.90      -99.90      -99.90      -99.90      -99.90    
       -99.90      -99.90      -99.90      -99.90      -99.90      -99.90      -99.90      -99.90      -99.90      -99.90    
  18   -99.90      -99.90      -99.90      -99.90      -99.90      -99.90      -99.90      -99.90      -99.90      -99.90    
       -99.90      -99.90      -99.90      -99.90      -99.90      -99.90      -99.90      -99.90      -99.90      -99.90    
       -99.90      -99.90      -99.90      -99.90      -99.90      -99.90      -99.90      -99.90      -99.90      -99.90    
       -99.90      -99.90      -99.90      -99.90      -99.90      -99.90      -99.90      -99.90      -99.90      -99.90    
  19   -99.90      -99.90      -99.90      -99.90      -99.90      -99.90      -99.90      -99.90      -99.90      -99.90    
       -99.90      -99.90      -99.90      -99.90      -99.90      -99.90      -99.90      -99.90      -99.90      -99.90    
       -99.90      -99.90      -99.90      -99.90      -99.90      -99.90      -99.90      -99.90      -99.90      -99.90    
       -99.90      -99.90      -99.90      -99.90      -99.90      -99.90      -99.90      -99.90      -99.90      -99.90    
  20   -99.90      -99.90      -99.90      -99.90      -99.90      -99.90      -99.90      -99.90      -99.90      -99.90    
       -99.90      -99.90      -99.90      -99.90      -99.90      -99.90      -99.90      -99.90      -99.90      -99.90    
       -99.90      -99.90      -99.90      -99.90      -99.90      -99.90      -99.90      -99.90      -99.90      -99.90    
       -99.90      -99.90      -99.90      -99.90      -99.90      -99.90      -99.90      -99.90      -99.90      -99.90    
  21   -99.90      -99.90      -99.90      -99.90      -99.90      -99.90      -99.90      -99.90      -99.90      -99.90    
       -99.90      -99.90      -99.90      -99.90      -99.90      -99.90      -99.90      -99.90      -99.90      -99.90    
       -99.90      -99.90      -99.90      -99.90      -99.90      -99.90      -99.90      -99.90      -99.90      -99.90    
       -99.90      -99.90      -99.90      -99.90      -99.90      -99.90      -99.90      -99.90      -99.90      -99.90    
  22   -99.90      -99.90      -99.90      -99.90      -99.90      -99.90      -99.90      -99.90      -99.90      -99.90    
       -99.90      -99.90      -99.90      -99.90      -99.90      -99.90      -99.90      -99.90      -99.90      -99.90    
       -99.90      -99.90      -99.90      -99.90      -99.90      -99.90      -99.90      -99.90      -99.90      -99.90    
       -99.90      -99.90      -99.90      -99.90      -99.90      -99.90      -99.90      -99.90      -99.90      -99.90    
  23   -99.90      -99.90      -99.90      -99.90      -99.90      -99.90      -99.90      -99.90      -99.90      -99.90    
       -99.90      -99.90      -99.90      -99.90      -99.90      -99.90      -99.90      -99.90      -99.90      -99.90    
       -99.90      -99.90      -99.90      -99.90      -99.90      -99.90      -99.90      -99.90      -99.90      -99.90    
       -99.90      -99.90      -99.90      -99.90      -99.90      -99.90      -99.90      -99.90      -99.90      -99.90    
  24   -99.90      -99.90      -99.90      -99.90      -99.90      -99.90      -99.90      -99.90      -99.90      -99.90    
       -99.90      -99.90      -99.90      -99.90      -99.90      -99.90      -99.90      -99.90      -99.90      -99.90    
       -99.90      -99.90      -99.90      -99.90      -99.90      -99.90      -99.90      -99.90      -99.90      -99.90    
       -99.90      -99.90      -99.90      -99.90      -99.90      -99.90      -99.90      -99.90      -99.90      -99.90    
  25   -99.90      -99.90      -99.90      -99.90      -99.90      -99.90      -99.90      -99.90      -99.90      -99.90    
       -99.90      -99.90      -99.90      -99.90      -99.90      -99.90      -99.90      -99.90      -99.90      -99.90    
       -99.90      -99.90      -99.90      -99.90      -99.90      -99.90      -99.90      -99.90      -99.90      -99.90    
       -99.90      -99.90      -99.90      -99.90      -99.90      -99.90      -99.90      -99.90      -99.90      -99.90    
  26   -99.90      -99.90      -99.90      -99.90      -99.90      -99.90      -99.90      -99.90      -99.90      -99.90    
       -99.90      -99.90      -99.90      -99.90      -99.90      -99.90      -99.90      -99.90      -99.90      -99.90    
       -99.90      -99.90      -99.90      -99.90      -99.90      -99.90      -99.90      -99.90      -99.90      -99.90    
       -99.90      -99.90      -99.90      -99.90      -99.90      -99.90      -99.90      -99.90      -99.90      -99.90    
  27   -99.90      -99.90      -99.90      -99.90      -99.90      -99.90      -99.90      -99.90      -99.90      -99.90    
       -99.90      -99.90      -99.90      -99.90      -99.90      -99.90      -99.90      -99.90      -99.90      -99.90    
       -99.90      -99.90      -99.90      -99.90      -99.90      -99.90      -99.90      -99.90      -99.90      -99.90    
       -99.90      -99.90      -99.90      -99.90      -99.90      -99.90      -99.90      -99.90      -99.90      -99.90    
  28   -99.90      -99.90      -99.90      -99.90      -99.90      -99.90      -99.90      -99.90      -99.90      -99.90    
       -99.90      -99.90      -99.90      -99.90      -99.90      -99.90      -99.90      -99.90      -99.90      -99.90    
       -99.90      -99.90      -99.90      -99.90      -99.90      -99.90      -99.90      -99.90      -99.90      -99.90    
       -99.90      -99.90      -99.90      -99.90      -99.90      -99.90      -99.90      -99.90      -99.90      -99.90    
  29   -99.90      -99.90      -99.90      -99.90      -99.90      -99.90      -99.90      -99.90      -99.90      -99.90    
       -99.90      -99.90      -99.90      -99.90      -99.90      -99.90      -99.90      -99.90      -99.90      -99.90    
       -99.90      -99.90      -99.90      -99.90      -99.90      -99.90      -99.90      -99.90      -99.90      -99.90    
       -99.90      -99.90      -99.90      -99.90      -99.90      -99.90      -99.90      -99.90      -99.90      -99.90    
  30   -99.90      -99.90      -99.90      -99.90      -99.90      -99.90      -99.90      -99.90      -99.90      -99.90    
       -99.90      -99.90      -99.90      -99.90      -99.90      -99.90      -99.90      -99.90      -99.90      -99.90    
       -99.90      -99.90      -99.90      -99.90      -99.90      -99.90      -99.90      -99.90      -99.90      -99.90    
       -99.90      -99.90      -99.90      -99.90      -99.90      -99.90      -99.90      -99.90      -99.90      -99.90    
  31   -99.90      -99.90      -99.90      -99.90      -99.90      -99.90      -99.90      -99.90      -99.90      -99.90    
       -99.90      -99.90      -99.90      -99.90      -99.90      -99.90      -99.90      -99.90      -99.90      -99.90    
       -99.90      -99.90      -99.90      -99.90      -99.90      -99.90      -99.90      -99.90      -99.90      -99.90    
       -99.90      -99.90      -99.90      -99.90      -99.90      -99.90      -99.90      -99.90      -99.90      -99.90    
  32   -99.90      -99.90      -99.90      -99.90      -99.90      -99.90      -99.90      -99.90      -99.90      -99.90    
       -99.90      -99.90      -99.90      -99.90      -99.90      -99.90      -99.90      -99.90      -99.90      -99.90    
       -99.90      -99.90      -99.90      -99.90      -99.90      -99.90      -99.90      -99.90      -99.90      -99.90    
       -99.90      -99.90      -99.90      -99.90      -99.90      -99.90      -99.90      -99.90      -99.90      -99.90    
  33   -99.90      -99.90      -99.90      -99.90      -99.90      -99.90      -99.90      -99.90      -99.90      -99.90    
       -99.90      -99.90      -99.90      -99.90      -99.90      -99.90      -99.90      -99.90      -99.90      -99.90    
       -99.90      -99.90      -99.90      -99.90      -99.90      -99.90      -99.90      -99.90      -99.90      -99.90    
       -99.90      -99.90      -99.90      -99.90      -99.90      -99.90      -99.90      -99.90      -99.90      -99.90    
  34   -99.90      -99.90      -99.90      -99.90      -99.90      -99.90      -99.90      -99.90      -99.90      -99.90    
       -99.90      -99.90      -99.90      -99.90      -99.90      -99.90      -99.90      -99.90      -99.90      -99.90    
       -99.90      -99.90      -99.90      -99.90      -99.90      -99.90      -99.90      -99.90      -99.90      -99.90    
       -99.90      -99.90      -99.90      -99.90      -99.90      -99.90      -99.90      -99.90      -99.90      -99.90    
  35   -99.90      -99.90      -99.90      -99.90      -99.90      -99.90      -99.90      -99.90      -99.90      -99.90    
       -99.90      -99.90      -99.90      -99.90      -99.90      -99.90      -99.90      -99.90      -99.90      -99.90    
       -99.90      -99.90      -99.90      -99.90      -99.90      -99.90      -99.90      -99.90      -99.90      -99.90    
       -99.90      -99.90      -99.90      -99.90      -99.90      -99.90      -99.90      -99.90      -99.90      -99.90    
  36   -99.90      -99.90      -99.90      -99.90      -99.90      -99.90      -99.90      -99.90      -99.90      -99.90    
       -99.90      -99.90      -99.90      -99.90      -99.90      -99.90      -99.90      -99.90      -99.90      -99.90    
       -99.90      -99.90      -99.90      -99.90      -99.90      -99.90      -99.90      -99.90      -99.90      -99.90    
       -99.90      -99.90      -99.90      -99.90      -99.90      -99.90      -99.90      -99.90      -99.90      -99.90    
  37   -99.90      -99.90      -99.90      -99.90      -99.90      -99.90      -99.90      -99.90      -99.90      -99.90    
       -99.90      -99.90      -99.90      -99.90      -99.90      -99.90      -99.90      -99.90      -99.90      -99.90    
       -99.90      -99.90      -99.90      -99.90      -99.90      -99.90      -99.90      -99.90      -99.90      -99.90    
       -99.90      -99.90      -99.90      -99.90      -99.90      -99.90      -99.90      -99.90      -99.90      -99.90    
  38   -99.90      -99.90      -99.90      -99.90      -99.90      -99.90      -99.90      -99.90      -99.90      -99.90    
       -99.90      -99.90      -99.90      -99.90      -99.90      -99.90      -99.90      -99.90      -99.90      -99.90    
       -99.90      -99.90      -99.90      -99.90      -99.90      -99.90      -99.90      -99.90      -99.90      -99.90    
       -99.90      -99.90      -99.90      -99.90      -99.90      -99.90      -99.90      -99.90      -99.90      -99.90    
  39   -99.90      -99.90      -99.90      -99.90      -99.90      -99.90      -99.90      -99.90      -99.90      -99.90    
       -99.90      -99.90      -99.90      -99.90      -99.90      -99.90      -99.90      -99.90      -99.90      -99.90    
       -99.90      -99.90      -99.90      -99.90      -99.90      -99.90      -99.90      -99.90      -99.90      -99.90    
       -99.90      -99.90      -99.90      -99.90      -99.90      -99.90      -99.90      -99.90      -99.90      -99.90    
  40   -99.90      -99.90      -99.90      -99.90      -99.90      -99.90      -99.90      -99.90      -99.90      -99.90    
       -99.90      -99.90      -99.90      -99.90      -99.90      -99.90      -99.90      -99.90      -99.90      -99.90    
       -99.90      -99.90      -99.90      -99.90      -99.90      -99.90      -99.90      -99.90      -99.90      -99.90    
       -99.90      -99.90      -99.90      -99.90      -99.90      -99.90      -99.90      -99.90      -99.90      -99.90    
1
              HEAD IN LAYER   6 AT END OF TIME STEP   1 IN STRESS PERIOD    1
  ---------------------------------------------------------------------------

            1           2           3           4           5           6           7           8           9          10
           11          12          13          14          15          16          17          18          19          20
           21          22          23          24          25          26          27          28          29          30
           31          32          33          34          35          36          37          38          39          40
 ........................................................................................................................
   1   -99.90      -99.90      -99.90      -99.90      -99.90      -99.90      -99.90      -99.90      -99.90      -99.90    
       -99.90      -99.90      -99.90      -99.90      -99.90      -99.90      -99.90      -99.90      -99.90      -99.90    
       -99.90      -99.90      -99.90      -99.90      -99.90      -99.90      -99.90      -99.90      -99.90      -99.90    
       -99.90      -99.90      -99.90      -99.90      -99.90      -99.90      -99.90      -99.90      -99.90      -99.90    
   2   -99.90      -99.90      -99.90      -99.90      -99.90      -99.90      -99.90      -99.90      -99.90      -99.90    
       -99.90      -99.90      -99.90      -99.90      -99.90      -99.90      -99.90      -99.90      -99.90      -99.90    
       -99.90      -99.90      -99.90      -99.90      -99.90      -99.90      -99.90      -99.90      -99.90      -99.90    
       -99.90      -99.90      -99.90      -99.90      -99.90      -99.90      -99.90      -99.90      -99.90      -99.90    
   3   -99.90      -99.90      -99.90      -99.90      -99.90      -99.90      -99.90      -99.90      -99.90      -99.90    
       -99.90      -99.90      -99.90      -99.90      -99.90      -99.90      -99.90      -99.90      -99.90      -99.90    
       -99.90      -99.90      -99.90      -99.90      -99.90      -99.90      -99.90      -99.90      -99.90      -99.90    
       -99.90      -99.90      -99.90      -99.90      -99.90      -99.90      -99.90      -99.90      -99.90      -99.90    
   4   -99.90      -99.90      -99.90      -99.90      -99.90      -99.90      -99.90      -99.90      -99.90      -99.90    
       -99.90      -99.90      -99.90      -99.90      -99.90      -99.90      -99.90      -99.90      -99.90      -99.90    
       -99.90      -99.90      -99.90      -99.90      -99.90      -99.90      -99.90      -99.90      -99.90      -99.90    
       -99.90      -99.90      -99.90      -99.90      -99.90      -99.90      -99.90      -99.90      -99.90      -99.90    
   5   -99.90      -99.90      -99.90      -99.90      -99.90      -99.90      -99.90      -99.90      -99.90      -99.90    
       -99.90      -99.90      -99.90      -99.90      -99.90      -99.90      -99.90      -99.90      -99.90      -99.90    
       -99.90      -99.90      -99.90      -99.90      -99.90      -99.90      -99.90      -99.90      -99.90      -99.90    
       -99.90      -99.90      -99.90      -99.90      -99.90      -99.90      -99.90      -99.90      -99.90      -99.90    
   6   -99.90      -99.90      -99.90      -99.90      -99.90      -99.90      -99.90      -99.90      -99.90      -99.90    
       -99.90      -99.90      -99.90      -99.90      -99.90      -99.90      -99.90      -99.90      -99.90      -99.90    
       -99.90      -99.90      -99.90      -99.90      -99.90      -99.90      -99.90      -99.90      -99.90      -99.90    
       -99.90      -99.90      -99.90      -99.90      -99.90      -99.90      -99.90      -99.90      -99.90      -99.90    
   7   -99.90      -99.90      -99.90      -99.90      -99.90      -99.90      -99.90      -99.90      -99.90      -99.90    
       -99.90      -99.90      -99.90      -99.90      -99.90      -99.90      -99.90      -99.90      -99.90      -99.90    
       -99.90      -99.90      -99.90      -99.90      -99.90      -99.90      -99.90      -99.90      -99.90      -99.90    
       -99.90      -99.90      -99.90      -99.90      -99.90      -99.90      -99.90      -99.90      -99.90      -99.90    
   8   -99.90      -99.90      -99.90      -99.90      -99.90      -99.90      -99.90      -99.90      -99.90      -99.90    
       -99.90      -99.90      -99.90      -99.90      -99.90      -99.90      -99.90      -99.90      -99.90      -99.90    
       -99.90      -99.90      -99.90      -99.90      -99.90      -99.90      -99.90      -99.90      -99.90      -99.90    
       -99.90      -99.90      -99.90      -99.90      -99.90      -99.90      -99.90      -99.90      -99.90      -99.90    
   9   -99.90      -99.90      -99.90      -99.90      -99.90      -99.90      -99.90      -99.90      -99.90      -99.90    
       -99.90      -99.90      -99.90      -99.90      -99.90      -99.90      -99.90      -99.90      -99.90      -99.90    
       -99.90      -99.90      -99.90      -99.90      -99.90      -99.90      -99.90      -99.90      -99.90      -99.90    
       -99.90      -99.90      -99.90      -99.90      -99.90      -99.90      -99.90      -99.90      -99.90      -99.90    
  10   -99.90      -99.90      -99.90      -99.90      -99.90      -99.90      -99.90      -99.90      -99.90      -99.90    
       -99.90      -99.90      -99.90      -99.90      -99.90      -99.90      -99.90      -99.90      -99.90      -99.90    
       -99.90      -99.90      -99.90      -99.90      -99.90      -99.90      -99.90      -99.90      -99.90      -99.90    
       -99.90      -99.90      -99.90      -99.90      -99.90      -99.90      -99.90      -99.90      -99.90      -99.90    
  11   -99.90      -99.90      -99.90      -99.90      -99.90      -99.90      -99.90      -99.90      -99.90      -99.90    
       -99.90      -99.90      -99.90      -99.90      -99.90      -99.90      -99.90      -99.90      -99.90      -99.90    
       -99.90      -99.90      -99.90      -99.90      -99.90      -99.90      -99.90      -99.90      -99.90      -99.90    
       -99.90      -99.90      -99.90      -99.90      -99.90      -99.90      -99.90      -99.90      -99.90      -99.90    
  12   -99.90      -99.90      -99.90      -99.90      -99.90      -99.90      -99.90      -99.90      -99.90      -99.90    
       -99.90      -99.90      -99.90      -99.90      -99.90      -99.90      -99.90      -99.90      -99.90      -99.90    
       -99.90      -99.90      -99.90      -99.90      -99.90      -99.90      -99.90      -99.90      -99.90      -99.90    
       -99.90      -99.90      -99.90      -99.90      -99.90      -99.90      -99.90      -99.90      -99.90      -99.90    
  13   -99.90      -99.90      -99.90      -99.90      -99.90      -99.90      -99.90      -99.90      -99.90      -99.90    
       -99.90      -99.90      -99.90      -99.90      -99.90      -99.90      -99.90      -99.90      -99.90      -99.90    
       -99.90      -99.90      -99.90      -99.90      -99.90      -99.90      -99.90      -99.90      -99.90      -99.90    
       -99.90      -99.90      -99.90      -99.90      -99.90      -99.90      -99.90      -99.90      -99.90      -99.90    
  14   -99.90      -99.90      -99.90      -99.90      -99.90      -99.90      -99.90      -99.90      -99.90      -99.90    
       -99.90      -99.90      -99.90      -99.90      -99.90      -99.90      -99.90      -99.90      -99.90      -99.90    
       -99.90      -99.90      -99.90      -99.90      -99.90      -99.90      -99.90      -99.90      -99.90      -99.90    
       -99.90      -99.90      -99.90      -99.90      -99.90      -99.90      -99.90      -99.90      -99.90      -99.90    
  15   -99.90      -99.90      -99.90      -99.90      -99.90      -99.90      -99.90      -99.90      -99.90      -99.90    
       -99.90      -99.90      -99.90      -99.90      -99.90      -99.90      -99.90      -99.90      -99.90      -99.90    
       -99.90      -99.90      -99.90      -99.90      -99.90      -99.90      -99.90      -99.90      -99.90      -99.90    
       -99.90      -99.90      -99.90      -99.90      -99.90      -99.90      -99.90      -99.90      -99.90      -99.90    
  16   -99.90      -99.90      -99.90      -99.90      -99.90      -99.90      -99.90      -99.90      -99.90      -99.90    
       -99.90      -99.90      -99.90      -99.90      -99.90      -99.90      -99.90      -99.90      -99.90      -99.90    
       -99.90      -99.90      -99.90      -99.90      -99.90      -99.90      -99.90      -99.90      -99.90      -99.90    
       -99.90      -99.90      -99.90      -99.90      -99.90      -99.90      -99.90      -99.90      -99.90      -99.90    
  17   -99.90      -99.90      -99.90      -99.90      -99.90      -99.90      -99.90      -99.90      -99.90      -99.90    
       -99.90      -99.90      -99.90      -99.90      -99.90      -99.90      -99.90      -99.90      -99.90      -99.90    
       -99.90      -99.90      -99.90      -99.90      -99.90      -99.90      -99.90      -99.90      -99.90      -99.90    
       -99.90      -99.90      -99.90      -99.90      -99.90      -99.90      -99.90      -99.90      -99.90      -99.90    
  18   -99.90      -99.90      -99.90      -99.90      -99.90      -99.90      -99.90      -99.90      -99.90      -99.90    
       -99.90      -99.90      -99.90      -99.90      -99.90      -99.90      -99.90      -99.90      -99.90      -99.90    
       -99.90      -99.90      -99.90      -99.90      -99.90      -99.90      -99.90      -99.90      -99.90      -99.90    
       -99.90      -99.90      -99.90      -99.90      -99.90      -99.90      -99.90      -99.90      -99.90      -99.90    
  19   -99.90      -99.90      -99.90      -99.90      -99.90      -99.90      -99.90      -99.90      -99.90      -99.90    
       -99.90      -99.90      -99.90      -99.90      -99.90      -99.90      -99.90      -99.90      -99.90      -99.90    
       -99.90      -99.90      -99.90      -99.90      -99.90      -99.90      -99.90      -99.90      -99.90      -99.90    
       -99.90      -99.90      -99.90      -99.90      -99.90      -99.90      -99.90      -99.90      -99.90      -99.90    
  20   -99.90      -99.90      -99.90      -99.90      -99.90      -99.90      -99.90      -99.90      -99.90      -99.90    
       -99.90      -99.90      -99.90      -99.90      -99.90      -99.90      -99.90      -99.90      -99.90      -99.90    
       -99.90      -99.90      -99.90      -99.90      -99.90      -99.90      -99.90      -99.90      -99.90      -99.90    
       -99.90      -99.90      -99.90      -99.90      -99.90      -99.90      -99.90      -99.90      -99.90      -99.90    
  21   -99.90      -99.90      -99.90      -99.90      -99.90      -99.90      -99.90      -99.90      -99.90      -99.90    
       -99.90      -99.90      -99.90      -99.90      -99.90      -99.90      -99.90      -99.90      -99.90      -99.90    
       -99.90      -99.90      -99.90      -99.90      -99.90      -99.90      -99.90      -99.90      -99.90      -99.90    
       -99.90      -99.90      -99.90      -99.90      -99.90      -99.90      -99.90      -99.90      -99.90      -99.90    
  22   -99.90      -99.90      -99.90      -99.90      -99.90      -99.90      -99.90      -99.90      -99.90      -99.90    
       -99.90      -99.90      -99.90      -99.90      -99.90      -99.90      -99.90      -99.90      -99.90      -99.90    
       -99.90      -99.90      -99.90      -99.90      -99.90      -99.90      -99.90      -99.90      -99.90      -99.90    
       -99.90      -99.90      -99.90      -99.90      -99.90      -99.90      -99.90      -99.90      -99.90      -99.90    
  23   -99.90      -99.90      -99.90      -99.90      -99.90      -99.90      -99.90      -99.90      -99.90      -99.90    
       -99.90      -99.90      -99.90      -99.90      -99.90      -99.90      -99.90      -99.90      -99.90      -99.90    
       -99.90      -99.90      -99.90      -99.90      -99.90      -99.90      -99.90      -99.90      -99.90      -99.90    
       -99.90      -99.90      -99.90      -99.90      -99.90      -99.90      -99.90      -99.90      -99.90      -99.90    
  24   -99.90      -99.90      -99.90      -99.90      -99.90      -99.90      -99.90      -99.90      -99.90      -99.90    
       -99.90      -99.90      -99.90      -99.90      -99.90      -99.90      -99.90      -99.90      -99.90      -99.90    
       -99.90      -99.90      -99.90      -99.90      -99.90      -99.90      -99.90      -99.90      -99.90      -99.90    
       -99.90      -99.90      -99.90      -99.90      -99.90      -99.90      -99.90      -99.90      -99.90      -99.90    
  25   -99.90      -99.90      -99.90      -99.90      -99.90      -99.90      -99.90      -99.90      -99.90      -99.90    
       -99.90      -99.90      -99.90      -99.90      -99.90      -99.90      -99.90      -99.90      -99.90      -99.90    
       -99.90      -99.90      -99.90      -99.90      -99.90      -99.90      -99.90      -99.90      -99.90      -99.90    
       -99.90      -99.90      -99.90      -99.90      -99.90      -99.90      -99.90      -99.90      -99.90      -99.90    
  26   -99.90      -99.90      -99.90      -99.90      -99.90      -99.90      -99.90      -99.90      -99.90      -99.90    
       -99.90      -99.90      -99.90      -99.90      -99.90      -99.90      -99.90      -99.90      -99.90      -99.90    
       -99.90      -99.90      -99.90      -99.90      -99.90      -99.90      -99.90      -99.90      -99.90      -99.90    
       -99.90      -99.90      -99.90      -99.90      -99.90      -99.90      -99.90      -99.90      -99.90      -99.90    
  27   -99.90      -99.90      -99.90      -99.90      -99.90      -99.90      -99.90      -99.90      -99.90      -99.90    
       -99.90      -99.90      -99.90      -99.90      -99.90      -99.90      -99.90      -99.90      -99.90      -99.90    
       -99.90      -99.90      -99.90      -99.90      -99.90      -99.90      -99.90      -99.90      -99.90      -99.90    
       -99.90      -99.90      -99.90      -99.90      -99.90      -99.90      -99.90      -99.90      -99.90      -99.90    
  28   -99.90      -99.90      -99.90      -99.90      -99.90      -99.90      -99.90      -99.90      -99.90      -99.90    
       -99.90      -99.90      -99.90      -99.90      -99.90      -99.90      -99.90      -99.90      -99.90      -99.90    
       -99.90      -99.90      -99.90      -99.90      -99.90      -99.90      -99.90      -99.90      -99.90      -99.90    
       -99.90      -99.90      -99.90      -99.90      -99.90      -99.90      -99.90      -99.90      -99.90      -99.90    
  29   -99.90      -99.90      -99.90      -99.90      -99.90      -99.90      -99.90      -99.90      -99.90      -99.90    
       -99.90      -99.90      -99.90      -99.90      -99.90      -99.90      -99.90      -99.90      -99.90      -99.90    
       -99.90      -99.90      -99.90      -99.90      -99.90      -99.90      -99.90      -99.90      -99.90      -99.90    
       -99.90      -99.90      -99.90      -99.90      -99.90      -99.90      -99.90      -99.90      -99.90      -99.90    
  30   -99.90      -99.90      -99.90      -99.90      -99.90      -99.90      -99.90      -99.90      -99.90      -99.90    
       -99.90      -99.90      -99.90      -99.90      -99.90      -99.90      -99.90      -99.90      -99.90      -99.90    
       -99.90      -99.90      -99.90      -99.90      -99.90      -99.90      -99.90      -99.90      -99.90      -99.90    
       -99.90      -99.90      -99.90      -99.90      -99.90      -99.90      -99.90      -99.90      -99.90      -99.90    
  31   -99.90      -99.90      -99.90      -99.90      -99.90      -99.90      -99.90      -99.90      -99.90      -99.90    
       -99.90      -99.90      -99.90      -99.90      -99.90      -99.90      -99.90      -99.90      -99.90      -99.90    
       -99.90      -99.90      -99.90      -99.90      -99.90      -99.90      -99.90      -99.90      -99.90      -99.90    
       -99.90      -99.90      -99.90      -99.90      -99.90      -99.90      -99.90      -99.90      -99.90      -99.90    
  32   -99.90      -99.90      -99.90      -99.90      -99.90      -99.90      -99.90      -99.90      -99.90      -99.90    
       -99.90      -99.90      -99.90      -99.90      -99.90      -99.90      -99.90      -99.90      -99.90      -99.90    
       -99.90      -99.90      -99.90      -99.90      -99.90      -99.90      -99.90      -99.90      -99.90      -99.90    
       -99.90      -99.90      -99.90      -99.90      -99.90      -99.90      -99.90      -99.90      -99.90      -99.90    
  33   -99.90      -99.90      -99.90      -99.90      -99.90      -99.90      -99.90      -99.90      -99.90      -99.90    
       -99.90      -99.90      -99.90      -99.90      -99.90      -99.90      -99.90      -99.90      -99.90      -99.90    
       -99.90      -99.90      -99.90      -99.90      -99.90      -99.90      -99.90      -99.90      -99.90      -99.90    
       -99.90      -99.90      -99.90      -99.90      -99.90      -99.90      -99.90      -99.90      -99.90      -99.90    
  34   -99.90      -99.90      -99.90      -99.90      -99.90      -99.90      -99.90      -99.90      -99.90      -99.90    
       -99.90      -99.90      -99.90      -99.90      -99.90      -99.90      -99.90      -99.90      -99.90      -99.90    
       -99.90      -99.90      -99.90      -99.90      -99.90      -99.90      -99.90      -99.90      -99.90      -99.90    
       -99.90      -99.90      -99.90      -99.90      -99.90      -99.90      -99.90      -99.90      -99.90      -99.90    
  35   -99.90      -99.90      -99.90      -99.90      -99.90      -99.90      -99.90      -99.90      -99.90      -99.90    
       -99.90      -99.90      -99.90      -99.90      -99.90      -99.90      -99.90      -99.90      -99.90      -99.90    
       -99.90      -99.90      -99.90      -99.90      -99.90      -99.90      -99.90      -99.90      -99.90      -99.90    
       -99.90      -99.90      -99.90      -99.90      -99.90      -99.90      -99.90      -99.90      -99.90      -99.90    
  36   -99.90      -99.90      -99.90      -99.90      -99.90      -99.90      -99.90      -99.90      -99.90      -99.90    
       -99.90      -99.90      -99.90      -99.90      -99.90      -99.90      -99.90      -99.90      -99.90      -99.90    
       -99.90      -99.90      -99.90      -99.90      -99.90      -99.90      -99.90      -99.90      -99.90      -99.90    
       -99.90      -99.90      -99.90      -99.90      -99.90      -99.90      -99.90      -99.90      -99.90      -99.90    
  37   -99.90      -99.90      -99.90      -99.90      -99.90      -99.90      -99.90      -99.90      -99.90      -99.90    
       -99.90      -99.90      -99.90      -99.90      -99.90      -99.90      -99.90      -99.90      -99.90      -99.90    
       -99.90      -99.90      -99.90      -99.90      -99.90      -99.90      -99.90      -99.90      -99.90      -99.90    
       -99.90      -99.90      -99.90      -99.90      -99.90      -99.90      -99.90      -99.90      -99.90      -99.90    
  38   -99.90      -99.90      -99.90      -99.90      -99.90      -99.90      -99.90      -99.90      -99.90      -99.90    
       -99.90      -99.90      -99.90      -99.90      -99.90      -99.90      -99.90      -99.90      -99.90      -99.90    
       -99.90      -99.90      -99.90      -99.90      -99.90      -99.90      -99.90      -99.90      -99.90      -99.90    
       -99.90      -99.90      -99.90      -99.90      -99.90      -99.90      -99.90      -99.90      -99.90      -99.90    
  39   -99.90      -99.90      -99.90      -99.90      -99.90      -99.90      -99.90      -99.90      -99.90      -99.90    
       -99.90      -99.90      -99.90      -99.90      -99.90      -99.90      -99.90      -99.90      -99.90      -99.90    
       -99.90      -99.90      -99.90      -99.90      -99.90      -99.90      -99.90      -99.90      -99.90      -99.90    
       -99.90      -99.90      -99.90      -99.90      -99.90      -99.90      -99.90      -99.90      -99.90      -99.90    
  40   -99.90      -99.90      -99.90      -99.90      -99.90      -99.90      -99.90      -99.90      -99.90      -99.90    
       -99.90      -99.90      -99.90      -99.90      -99.90      -99.90      -99.90      -99.90      -99.90      -99.90    
       -99.90      -99.90      -99.90      -99.90      -99.90      -99.90      -99.90      -99.90      -99.90      -99.90    
       -99.90      -99.90      -99.90      -99.90      -99.90      -99.90      -99.90      -99.90      -99.90      -99.90    
1
              HEAD IN LAYER   7 AT END OF TIME STEP   1 IN STRESS PERIOD    1
  ---------------------------------------------------------------------------

            1           2           3           4           5           6           7           8           9          10
           11          12          13          14          15          16          17          18          19          20
           21          22          23          24          25          26          27          28          29          30
           31          32          33          34          35          36          37          38          39          40
 ........................................................................................................................
   1   -99.90      -99.90      -99.90      -99.90      -99.90      -99.90      -99.90      -99.90      -99.90      -99.90    
       -99.90      -99.90      -99.90      -99.90      -99.90      -99.90      -99.90      -99.90      -99.90      -99.90    
       -99.90      -99.90      -99.90      -99.90      -99.90      -99.90      -99.90      -99.90      -99.90      -99.90    
       -99.90      -99.90      -99.90      -99.90      -99.90      -99.90      -99.90      -99.90      -99.90      -99.90    
   2   -99.90      -99.90      -99.90      -99.90      -99.90      -99.90      -99.90      -99.90      -99.90      -99.90    
       -99.90      -99.90      -99.90      -99.90      -99.90      -99.90      -99.90      -99.90      -99.90      -99.90    
       -99.90      -99.90      -99.90      -99.90      -99.90      -99.90      -99.90      -99.90      -99.90      -99.90    
       -99.90      -99.90      -99.90      -99.90      -99.90      -99.90      -99.90      -99.90      -99.90      -99.90    
   3   -99.90      -99.90      -99.90      -99.90      -99.90      -99.90      -99.90      -99.90      -99.90      -99.90    
       -99.90      -99.90      -99.90      -99.90      -99.90      -99.90      -99.90      -99.90      -99.90      -99.90    
       -99.90      -99.90      -99.90      -99.90      -99.90      -99.90      -99.90      -99.90      -99.90      -99.90    
       -99.90      -99.90      -99.90      -99.90      -99.90      -99.90      -99.90      -99.90      -99.90      -99.90    
   4   -99.90      -99.90      -99.90      -99.90      -99.90      -99.90      -99.90      -99.90      -99.90      -99.90    
       -99.90      -99.90      -99.90      -99.90      -99.90      -99.90      -99.90      -99.90      -99.90      -99.90    
       -99.90      -99.90      -99.90      -99.90      -99.90      -99.90      -99.90      -99.90      -99.90      -99.90    
       -99.90      -99.90      -99.90      -99.90      -99.90      -99.90      -99.90      -99.90      -99.90      -99.90    
   5   -99.90      -99.90      -99.90      -99.90      -99.90      -99.90      -99.90      -99.90      -99.90      -99.90    
       -99.90      -99.90      -99.90      -99.90      -99.90      -99.90      -99.90      -99.90      -99.90      -99.90    
       -99.90      -99.90      -99.90      -99.90      -99.90      -99.90      -99.90      -99.90      -99.90      -99.90    
       -99.90      -99.90      -99.90      -99.90      -99.90      -99.90      -99.90      -99.90      -99.90      -99.90    
   6   -99.90      -99.90      -99.90      -99.90      -99.90      -99.90      -99.90      -99.90      -99.90      -99.90    
       -99.90      -99.90      -99.90      -99.90      -99.90      -99.90      -99.90      -99.90      -99.90      -99.90    
       -99.90      -99.90      -99.90      -99.90      -99.90      -99.90      -99.90      -99.90      -99.90      -99.90    
       -99.90      -99.90      -99.90      -99.90      -99.90      -99.90      -99.90      -99.90      -99.90      -99.90    
   7   -99.90      -99.90      -99.90      -99.90      -99.90      -99.90      -99.90      -99.90      -99.90      -99.90    
       -99.90      -99.90      -99.90      -99.90      -99.90      -99.90      -99.90      -99.90      -99.90      -99.90    
       -99.90      -99.90      -99.90      -99.90      -99.90      -99.90      -99.90      -99.90      -99.90      -99.90    
       -99.90      -99.90      -99.90      -99.90      -99.90      -99.90      -99.90      -99.90      -99.90      -99.90    
   8   -99.90      -99.90      -99.90      -99.90      -99.90      -99.90      -99.90      -99.90      -99.90      -99.90    
       -99.90      -99.90      -99.90      -99.90      -99.90      -99.90      -99.90      -99.90      -99.90      -99.90    
       -99.90      -99.90      -99.90      -99.90      -99.90      -99.90      -99.90      -99.90      -99.90      -99.90    
       -99.90      -99.90      -99.90      -99.90      -99.90      -99.90      -99.90      -99.90      -99.90      -99.90    
   9   -99.90      -99.90      -99.90      -99.90      -99.90      -99.90      -99.90      -99.90      -99.90      -99.90    
       -99.90      -99.90      -99.90      -99.90      -99.90      -99.90      -99.90      -99.90      -99.90      -99.90    
       -99.90      -99.90      -99.90      -99.90      -99.90      -99.90      -99.90      -99.90      -99.90      -99.90    
       -99.90      -99.90      -99.90      -99.90      -99.90      -99.90      -99.90      -99.90      -99.90      -99.90    
  10   -99.90      -99.90      -99.90      -99.90      -99.90      -99.90      -99.90      -99.90      -99.90      -99.90    
       -99.90      -99.90      -99.90      -99.90      -99.90      -99.90      -99.90      -99.90      -99.90      -99.90    
       -99.90      -99.90      -99.90      -99.90      -99.90      -99.90      -99.90      -99.90      -99.90      -99.90    
       -99.90      -99.90      -99.90      -99.90      -99.90      -99.90      -99.90      -99.90      -99.90      -99.90    
  11   -99.90      -99.90      -99.90      -99.90      -99.90      -99.90      -99.90      -99.90      -99.90      -99.90    
       -99.90      -99.90      -99.90      -99.90      -99.90      -99.90      -99.90      -99.90      -99.90      -99.90    
       -99.90      -99.90      -99.90      -99.90      -99.90      -99.90      -99.90      -99.90      -99.90      -99.90    
       -99.90      -99.90      -99.90      -99.90      -99.90      -99.90      -99.90      -99.90      -99.90      -99.90    
  12   -99.90      -99.90      -99.90      -99.90      -99.90      -99.90      -99.90      -99.90      -99.90      -99.90    
       -99.90      -99.90      -99.90      -99.90      -99.90      -99.90      -99.90      -99.90      -99.90      -99.90    
       -99.90      -99.90      -99.90      -99.90      -99.90      -99.90      -99.90      -99.90      -99.90      -99.90    
       -99.90      -99.90      -99.90      -99.90      -99.90      -99.90      -99.90      -99.90      -99.90      -99.90    
  13   -99.90      -99.90      -99.90      -99.90      -99.90      -99.90      -99.90      -99.90      -99.90      -99.90    
       -99.90      -99.90      -99.90      -99.90      -99.90      -99.90      -99.90      -99.90      -99.90      -99.90    
       -99.90      -99.90      -99.90      -99.90      -99.90      -99.90      -99.90      -99.90      -99.90      -99.90    
       -99.90      -99.90      -99.90      -99.90      -99.90      -99.90      -99.90      -99.90      -99.90      -99.90    
  14   -99.90      -99.90      -99.90      -99.90      -99.90      -99.90      -99.90      -99.90      -99.90      -99.90    
       -99.90      -99.90      -99.90      -99.90      -99.90      -99.90      -99.90      -99.90      -99.90      -99.90    
       -99.90      -99.90      -99.90      -99.90      -99.90      -99.90      -99.90      -99.90      -99.90      -99.90    
       -99.90      -99.90      -99.90      -99.90      -99.90      -99.90      -99.90      -99.90      -99.90      -99.90    
  15   -99.90      -99.90      -99.90      -99.90      -99.90      -99.90      -99.90      -99.90      -99.90      -99.90    
       -99.90      -99.90      -99.90      -99.90      -99.90      -99.90      -99.90      -99.90      -99.90      -99.90    
       -99.90      -99.90      -99.90      -99.90      -99.90      -99.90      -99.90      -99.90      -99.90      -99.90    
       -99.90      -99.90      -99.90      -99.90      -99.90      -99.90      -99.90      -99.90      -99.90      -99.90    
  16   -99.90      -99.90      -99.90      -99.90      -99.90      -99.90      -99.90      -99.90      -99.90      -99.90    
       -99.90      -99.90      -99.90      -99.90      -99.90      -99.90      -99.90      -99.90      -99.90      -99.90    
       -99.90      -99.90      -99.90      -99.90      -99.90      -99.90      -99.90      -99.90      -99.90      -99.90    
       -99.90      -99.90      -99.90      -99.90      -99.90      -99.90      -99.90      -99.90      -99.90      -99.90    
  17   -99.90      -99.90      -99.90      -99.90      -99.90      -99.90      -99.90      -99.90      -99.90      -99.90    
       -99.90      -99.90      -99.90      -99.90      -99.90      -99.90      -99.90      -99.90      -99.90      -99.90    
       -99.90      -99.90      -99.90      -99.90      -99.90      -99.90      -99.90      -99.90      -99.90      -99.90    
       -99.90      -99.90      -99.90      -99.90      -99.90      -99.90      -99.90      -99.90      -99.90      -99.90    
  18   -99.90      -99.90      -99.90      -99.90      -99.90      -99.90      -99.90      -99.90      -99.90      -99.90    
       -99.90      -99.90      -99.90      -99.90      -99.90      -99.90      -99.90      -99.90      -99.90      -99.90    
       -99.90      -99.90      -99.90      -99.90      -99.90      -99.90      -99.90      -99.90      -99.90      -99.90    
       -99.90      -99.90      -99.90      -99.90      -99.90      -99.90      -99.90      -99.90      -99.90      -99.90    
  19   -99.90      -99.90      -99.90      -99.90      -99.90      -99.90      -99.90      -99.90      -99.90      -99.90    
       -99.90      -99.90      -99.90      -99.90      -99.90      -99.90      -99.90      -99.90      -99.90      -99.90    
       -99.90      -99.90      -99.90      -99.90      -99.90      -99.90      -99.90      -99.90      -99.90      -99.90    
       -99.90      -99.90      -99.90      -99.90      -99.90      -99.90      -99.90      -99.90      -99.90      -99.90    
  20   -99.90      -99.90      -99.90      -99.90      -99.90      -99.90      -99.90      -99.90      -99.90      -99.90    
       -99.90      -99.90      -99.90      -99.90      -99.90      -99.90      -99.90      -99.90      -99.90      -99.90    
       -99.90      -99.90      -99.90      -99.90      -99.90      -99.90      -99.90      -99.90      -99.90      -99.90    
       -99.90      -99.90      -99.90      -99.90      -99.90      -99.90      -99.90      -99.90      -99.90      -99.90    
  21   -99.90      -99.90      -99.90      -99.90      -99.90      -99.90      -99.90      -99.90      -99.90      -99.90    
       -99.90      -99.90      -99.90      -99.90      -99.90      -99.90      -99.90      -99.90      -99.90      -99.90    
       -99.90      -99.90      -99.90      -99.90      -99.90      -99.90      -99.90      -99.90      -99.90      -99.90    
       -99.90      -99.90      -99.90      -99.90      -99.90      -99.90      -99.90      -99.90      -99.90      -99.90    
  22   -99.90      -99.90      -99.90      -99.90      -99.90      -99.90      -99.90      -99.90      -99.90      -99.90    
       -99.90      -99.90      -99.90      -99.90      -99.90      -99.90      -99.90      -99.90      -99.90      -99.90    
       -99.90      -99.90      -99.90      -99.90      -99.90      -99.90      -99.90      -99.90      -99.90      -99.90    
       -99.90      -99.90      -99.90      -99.90      -99.90      -99.90      -99.90      -99.90      -99.90      -99.90    
  23   -99.90      -99.90      -99.90      -99.90      -99.90      -99.90      -99.90      -99.90      -99.90      -99.90    
       -99.90      -99.90      -99.90      -99.90      -99.90      -99.90      -99.90      -99.90      -99.90      -99.90    
       -99.90      -99.90      -99.90      -99.90      -99.90      -99.90      -99.90      -99.90      -99.90      -99.90    
       -99.90      -99.90      -99.90      -99.90      -99.90      -99.90      -99.90      -99.90      -99.90      -99.90    
  24   -99.90      -99.90      -99.90      -99.90      -99.90      -99.90      -99.90      -99.90      -99.90      -99.90    
       -99.90      -99.90      -99.90      -99.90      -99.90      -99.90      -99.90      -99.90      -99.90      -99.90    
       -99.90      -99.90      -99.90      -99.90      -99.90      -99.90      -99.90      -99.90      -99.90      -99.90    
       -99.90      -99.90      -99.90      -99.90      -99.90      -99.90      -99.90      -99.90      -99.90      -99.90    
  25   -99.90      -99.90      -99.90      -99.90      -99.90      -99.90      -99.90      -99.90      -99.90      -99.90    
       -99.90      -99.90      -99.90      -99.90      -99.90      -99.90      -99.90      -99.90      -99.90      -99.90    
       -99.90      -99.90      -99.90      -99.90      -99.90      -99.90      -99.90      -99.90      -99.90      -99.90    
       -99.90      -99.90      -99.90      -99.90      -99.90      -99.90      -99.90      -99.90      -99.90      -99.90    
  26   -99.90      -99.90      -99.90      -99.90      -99.90      -99.90      -99.90      -99.90      -99.90      -99.90    
       -99.90      -99.90      -99.90      -99.90      -99.90      -99.90      -99.90      -99.90      -99.90      -99.90    
       -99.90      -99.90      -99.90      -99.90      -99.90      -99.90      -99.90      -99.90      -99.90      -99.90    
       -99.90      -99.90      -99.90      -99.90      -99.90      -99.90      -99.90      -99.90      -99.90      -99.90    
  27   -99.90      -99.90      -99.90      -99.90      -99.90      -99.90      -99.90      -99.90      -99.90      -99.90    
       -99.90      -99.90      -99.90      -99.90      -99.90      -99.90      -99.90      -99.90      -99.90      -99.90    
       -99.90      -99.90      -99.90      -99.90      -99.90      -99.90      -99.90      -99.90      -99.90      -99.90    
       -99.90      -99.90      -99.90      -99.90      -99.90      -99.90      -99.90      -99.90      -99.90      -99.90    
  28   -99.90      -99.90      -99.90      -99.90      -99.90      -99.90      -99.90      -99.90      -99.90      -99.90    
       -99.90      -99.90      -99.90      -99.90      -99.90      -99.90      -99.90      -99.90      -99.90      -99.90    
       -99.90      -99.90      -99.90      -99.90      -99.90      -99.90      -99.90      -99.90      -99.90      -99.90    
       -99.90      -99.90      -99.90      -99.90      -99.90      -99.90      -99.90      -99.90      -99.90      -99.90    
  29   -99.90      -99.90      -99.90      -99.90      -99.90      -99.90      -99.90      -99.90      -99.90      -99.90    
       -99.90      -99.90      -99.90      -99.90      -99.90      -99.90      -99.90      -99.90      -99.90      -99.90    
       -99.90      -99.90      -99.90      -99.90      -99.90      -99.90      -99.90      -99.90      -99.90      -99.90    
       -99.90      -99.90      -99.90      -99.90      -99.90      -99.90      -99.90      -99.90      -99.90      -99.90    
  30   -99.90      -99.90      -99.90      -99.90      -99.90      -99.90      -99.90      -99.90      -99.90      -99.90    
       -99.90      -99.90      -99.90      -99.90      -99.90      -99.90      -99.90      -99.90      -99.90      -99.90    
       -99.90      -99.90      -99.90      -99.90      -99.90      -99.90      -99.90      -99.90      -99.90      -99.90    
       -99.90      -99.90      -99.90      -99.90      -99.90      -99.90      -99.90      -99.90      -99.90      -99.90    
  31   -99.90      -99.90      -99.90      -99.90      -99.90      -99.90      -99.90      -99.90      -99.90      -99.90    
       -99.90      -99.90      -99.90      -99.90      -99.90      -99.90      -99.90      -99.90      -99.90      -99.90    
       -99.90      -99.90      -99.90      -99.90      -99.90      -99.90      -99.90      -99.90      -99.90      -99.90    
       -99.90      -99.90      -99.90      -99.90      -99.90      -99.90      -99.90      -99.90      -99.90      -99.90    
  32   -99.90      -99.90      -99.90      -99.90      -99.90      -99.90      -99.90      -99.90      -99.90      -99.90    
       -99.90      -99.90      -99.90      -99.90      -99.90      -99.90      -99.90      -99.90      -99.90      -99.90    
       -99.90      -99.90      -99.90      -99.90      -99.90      -99.90      -99.90      -99.90      -99.90      -99.90    
       -99.90      -99.90      -99.90      -99.90      -99.90      -99.90      -99.90      -99.90      -99.90      -99.90    
  33   -99.90      -99.90      -99.90      -99.90      -99.90      -99.90      -99.90      -99.90      -99.90      -99.90    
       -99.90      -99.90      -99.90      -99.90      -99.90      -99.90      -99.90      -99.90      -99.90      -99.90    
       -99.90      -99.90      -99.90      -99.90      -99.90      -99.90      -99.90      -99.90      -99.90      -99.90    
       -99.90      -99.90      -99.90      -99.90      -99.90      -99.90      -99.90      -99.90      -99.90      -99.90    
  34   -99.90      -99.90      -99.90      -99.90      -99.90      -99.90      -99.90      -99.90      -99.90      -99.90    
       -99.90      -99.90      -99.90      -99.90      -99.90      -99.90      -99.90      -99.90      -99.90      -99.90    
       -99.90      -99.90      -99.90      -99.90      -99.90      -99.90      -99.90      -99.90      -99.90      -99.90    
       -99.90      -99.90      -99.90      -99.90      -99.90      -99.90      -99.90      -99.90      -99.90      -99.90    
  35   -99.90      -99.90      -99.90      -99.90      -99.90      -99.90      -99.90      -99.90      -99.90      -99.90    
       -99.90      -99.90      -99.90      -99.90      -99.90      -99.90      -99.90      -99.90      -99.90      -99.90    
       -99.90      -99.90      -99.90      -99.90      -99.90      -99.90      -99.90      -99.90      -99.90      -99.90    
       -99.90      -99.90      -99.90      -99.90      -99.90      -99.90      -99.90      -99.90      -99.90      -99.90    
  36   -99.90      -99.90      -99.90      -99.90      -99.90      -99.90      -99.90      -99.90      -99.90      -99.90    
       -99.90      -99.90      -99.90      -99.90      -99.90      -99.90      -99.90      -99.90      -99.90      -99.90    
       -99.90      -99.90      -99.90      -99.90      -99.90      -99.90      -99.90      -99.90      -99.90      -99.90    
       -99.90      -99.90      -99.90      -99.90      -99.90      -99.90      -99.90      -99.90      -99.90      -99.90    
  37   -99.90      -99.90      -99.90      -99.90      -99.90      -99.90      -99.90      -99.90      -99.90      -99.90    
       -99.90      -99.90      -99.90      -99.90      -99.90      -99.90      -99.90      -99.90      -99.90      -99.90    
       -99.90      -99.90      -99.90      -99.90      -99.90      -99.90      -99.90      -99.90      -99.90      -99.90    
       -99.90      -99.90      -99.90      -99.90      -99.90      -99.90      -99.90      -99.90      -99.90      -99.90    
  38   -99.90      -99.90      -99.90      -99.90      -99.90      -99.90      -99.90      -99.90      -99.90      -99.90    
       -99.90      -99.90      -99.90      -99.90      -99.90      -99.90      -99.90      -99.90      -99.90      -99.90    
       -99.90      -99.90      -99.90      -99.90      -99.90      -99.90      -99.90      -99.90      -99.90      -99.90    
       -99.90      -99.90      -99.90      -99.90      -99.90      -99.90      -99.90      -99.90      -99.90      -99.90    
  39   -99.90      -99.90      -99.90      -99.90      -99.90      -99.90      -99.90      -99.90      -99.90      -99.90    
       -99.90      -99.90      -99.90      -99.90      -99.90      -99.90      -99.90      -99.90      -99.90      -99.90    
       -99.90      -99.90      -99.90      -99.90      -99.90      -99.90      -99.90      -99.90      -99.90      -99.90    
       -99.90      -99.90      -99.90      -99.90      -99.90      -99.90      -99.90      -99.90      -99.90      -99.90    
  40   -99.90      -99.90      -99.90      -99.90      -99.90      -99.90      -99.90      -99.90      -99.90      -99.90    
       -99.90      -99.90      -99.90      -99.90      -99.90      -99.90      -99.90      -99.90      -99.90      -99.90    
       -99.90      -99.90      -99.90      -99.90      -99.90      -99.90      -99.90      -99.90      -99.90      -99.90    
       -99.90      -99.90      -99.90      -99.90      -99.90      -99.90      -99.90      -99.90      -99.90      -99.90    
1
              HEAD IN LAYER   8 AT END OF TIME STEP   1 IN STRESS PERIOD    1
  ---------------------------------------------------------------------------

            1           2           3           4           5           6           7           8           9          10
           11          12          13          14          15          16          17          18          19          20
           21          22          23          24          25          26          27          28          29          30
           31          32          33          34          35          36          37          38          39          40
 ........................................................................................................................
   1   -99.90      -99.90      -99.90      -99.90      -99.90      -99.90      -99.90      -99.90      -99.90      -99.90    
       -99.90      -99.90      -99.90      -99.90      -99.90      -99.90      -99.90      -99.90      -99.90      -99.90    
       -99.90      -99.90      -99.90      -99.90      -99.90      -99.90      -99.90      -99.90      -99.90      -99.90    
       -99.90      -99.90      -99.90      -99.90      -99.90      -99.90      -99.90      -99.90      -99.90      -99.90    
   2   -99.90      -99.90      -99.90      -99.90      -99.90      -99.90      -99.90      -99.90      -99.90      -99.90    
       -99.90      -99.90      -99.90      -99.90      -99.90      -99.90      -99.90      -99.90      -99.90      -99.90    
       -99.90      -99.90      -99.90      -99.90      -99.90      -99.90      -99.90      -99.90      -99.90      -99.90    
       -99.90      -99.90      -99.90      -99.90      -99.90      -99.90      -99.90      -99.90      -99.90      -99.90    
   3   -99.90      -99.90      -99.90      -99.90      -99.90      -99.90      -99.90      -99.90      -99.90      -99.90    
       -99.90      -99.90      -99.90      -99.90      -99.90      -99.90      -99.90      -99.90      -99.90      -99.90    
       -99.90      -99.90      -99.90      -99.90      -99.90      -99.90      -99.90      -99.90      -99.90      -99.90    
       -99.90      -99.90      -99.90      -99.90      -99.90      -99.90      -99.90      -99.90      -99.90      -99.90    
   4   -99.90      -99.90      -99.90      -99.90      -99.90      -99.90      -99.90      -99.90      -99.90      -99.90    
       -99.90      -99.90      -99.90      -99.90      -99.90      -99.90      -99.90      -99.90      -99.90      -99.90    
       -99.90      -99.90      -99.90      -99.90      -99.90      -99.90      -99.90      -99.90      -99.90      -99.90    
       -99.90      -99.90      -99.90      -99.90      -99.90      -99.90      -99.90      -99.90      -99.90      -99.90    
   5   -99.90      -99.90      -99.90      -99.90      -99.90      -99.90      -99.90      -99.90      -99.90      -99.90    
       -99.90      -99.90      -99.90      -99.90      -99.90      -99.90      -99.90      -99.90      -99.90      -99.90    
       -99.90      -99.90      -99.90      -99.90      -99.90      -99.90      -99.90      -99.90      -99.90      -99.90    
       -99.90      -99.90      -99.90      -99.90      -99.90      -99.90      -99.90      -99.90      -99.90      -99.90    
   6   -99.90      -99.90      -99.90      -99.90      -99.90      -99.90      -99.90      -99.90      -99.90      -99.90    
       -99.90      -99.90      -99.90      -99.90      -99.90      -99.90      -99.90      -99.90      -99.90      -99.90    
       -99.90      -99.90      -99.90      -99.90      -99.90      -99.90      -99.90      -99.90      -99.90      -99.90    
       -99.90      -99.90      -99.90      -99.90      -99.90      -99.90      -99.90      -99.90      -99.90      -99.90    
   7   -99.90      -99.90      -99.90      -99.90      -99.90      -99.90      -99.90      -99.90      -99.90      -99.90    
       -99.90      -99.90      -99.90      -99.90      -99.90      -99.90      -99.90      -99.90      -99.90      -99.90    
       -99.90      -99.90      -99.90      -99.90      -99.90      -99.90      -99.90      -99.90      -99.90      -99.90    
       -99.90      -99.90      -99.90      -99.90      -99.90      -99.90      -99.90      -99.90      -99.90      -99.90    
   8   -99.90      -99.90      -99.90      -99.90      -99.90      -99.90      -99.90      -99.90      -99.90      -99.90    
       -99.90      -99.90      -99.90      -99.90      -99.90      -99.90      -99.90      -99.90      -99.90      -99.90    
       -99.90      -99.90      -99.90      -99.90      -99.90      -99.90      -99.90      -99.90      -99.90      -99.90    
       -99.90      -99.90      -99.90      -99.90      -99.90      -99.90      -99.90      -99.90      -99.90      -99.90    
   9   -99.90      -99.90      -99.90      -99.90      -99.90      -99.90      -99.90      -99.90      -99.90      -99.90    
       -99.90      -99.90      -99.90      -99.90      -99.90      -99.90      -99.90      -99.90      -99.90      -99.90    
       -99.90      -99.90      -99.90      -99.90      -99.90      -99.90      -99.90      -99.90      -99.90      -99.90    
       -99.90      -99.90      -99.90      -99.90      -99.90      -99.90      -99.90      -99.90      -99.90      -99.90    
  10   -99.90      -99.90      -99.90      -99.90      -99.90      -99.90      -99.90      -99.90      -99.90      -99.90    
       -99.90      -99.90      -99.90      -99.90      -99.90      -99.90      -99.90      -99.90      -99.90      -99.90    
       -99.90      -99.90      -99.90      -99.90      -99.90      -99.90      -99.90      -99.90      -99.90      -99.90    
       -99.90      -99.90      -99.90      -99.90      -99.90      -99.90      -99.90      -99.90      -99.90      -99.90    
  11   -99.90      -99.90      -99.90      -99.90      -99.90      -99.90      -99.90      -99.90      -99.90      -99.90    
       -99.90      -99.90      -99.90      -99.90      -99.90      -99.90      -99.90      -99.90      -99.90      -99.90    
       -99.90      -99.90      -99.90      -99.90      -99.90      -99.90      -99.90      -99.90      -99.90      -99.90    
       -99.90      -99.90      -99.90      -99.90      -99.90      -99.90      -99.90      -99.90      -99.90      -99.90    
  12   -99.90      -99.90      -99.90      -99.90      -99.90      -99.90      -99.90      -99.90      -99.90      -99.90    
       -99.90      -99.90      -99.90      -99.90      -99.90      -99.90      -99.90      -99.90      -99.90      -99.90    
       -99.90      -99.90      -99.90      -99.90      -99.90      -99.90      -99.90      -99.90      -99.90      -99.90    
       -99.90      -99.90      -99.90      -99.90      -99.90      -99.90      -99.90      -99.90      -99.90      -99.90    
  13   -99.90      -99.90      -99.90      -99.90      -99.90      -99.90      -99.90      -99.90      -99.90      -99.90    
       -99.90      -99.90      -99.90      -99.90      -99.90      -99.90      -99.90      -99.90      -99.90      -99.90    
       -99.90      -99.90      -99.90      -99.90      -99.90      -99.90      -99.90      -99.90      -99.90      -99.90    
       -99.90      -99.90      -99.90      -99.90      -99.90      -99.90      -99.90      -99.90      -99.90      -99.90    
  14   -99.90      -99.90      -99.90      -99.90      -99.90      -99.90      -99.90      -99.90      -99.90      -99.90    
       -99.90      -99.90      -99.90      -99.90      -99.90      -99.90      -99.90      -99.90      -99.90      -99.90    
       -99.90      -99.90      -99.90      -99.90      -99.90      -99.90      -99.90      -99.90      -99.90      -99.90    
       -99.90      -99.90      -99.90      -99.90      -99.90      -99.90      -99.90      -99.90      -99.90      -99.90    
  15   -99.90      -99.90      -99.90      -99.90      -99.90      -99.90      -99.90      -99.90      -99.90      -99.90    
       -99.90      -99.90      -99.90      -99.90      -99.90      -99.90      -99.90      -99.90      -99.90      -99.90    
       -99.90      -99.90      -99.90      -99.90      -99.90      -99.90      -99.90      -99.90      -99.90      -99.90    
       -99.90      -99.90      -99.90      -99.90      -99.90      -99.90      -99.90      -99.90      -99.90      -99.90    
  16   -99.90      -99.90      -99.90      -99.90      -99.90      -99.90      -99.90      -99.90      -99.90      -99.90    
       -99.90      -99.90      -99.90      -99.90      -99.90      -99.90      -99.90      -99.90      -99.90      -99.90    
       -99.90      -99.90      -99.90      -99.90      -99.90      -99.90      -99.90      -99.90      -99.90      -99.90    
       -99.90      -99.90      -99.90      -99.90      -99.90      -99.90      -99.90      -99.90      -99.90      -99.90    
  17   -99.90      -99.90      -99.90      -99.90      -99.90      -99.90      -99.90      -99.90      -99.90      -99.90    
       -99.90      -99.90      -99.90      -99.90      -99.90      -99.90      -99.90      -99.90      -99.90      -99.90    
       -99.90      -99.90      -99.90      -99.90      -99.90      -99.90      -99.90      -99.90      -99.90      -99.90    
       -99.90      -99.90      -99.90      -99.90      -99.90      -99.90      -99.90      -99.90      -99.90      -99.90    
  18   -99.90      -99.90      -99.90      -99.90      -99.90      -99.90      -99.90      -99.90      -99.90      -99.90    
       -99.90      -99.90      -99.90      -99.90      -99.90      -99.90      -99.90      -99.90      -99.90      -99.90    
       -99.90      -99.90      -99.90      -99.90      -99.90      -99.90      -99.90      -99.90      -99.90      -99.90    
       -99.90      -99.90      -99.90      -99.90      -99.90      -99.90      -99.90      -99.90      -99.90      -99.90    
  19   -99.90      -99.90      -99.90      -99.90      -99.90      -99.90      -99.90      -99.90      -99.90      -99.90    
       -99.90      -99.90      -99.90      -99.90      -99.90      -99.90      -99.90      -99.90      -99.90      -99.90    
       -99.90      -99.90      -99.90      -99.90      -99.90      -99.90      -99.90      -99.90      -99.90      -99.90    
       -99.90      -99.90      -99.90      -99.90      -99.90      -99.90      -99.90      -99.90      -99.90      -99.90    
  20   -99.90      -99.90      -99.90      -99.90      -99.90      -99.90      -99.90      -99.90      -99.90      -99.90    
       -99.90      -99.90      -99.90      -99.90      -99.90      -99.90      -99.90      -99.90      -99.90      -99.90    
       -99.90      -99.90      -99.90      -99.90      -99.90      -99.90      -99.90      -99.90      -99.90      -99.90    
       -99.90      -99.90      -99.90      -99.90      -99.90      -99.90      -99.90      -99.90      -99.90      -99.90    
  21   -99.90      -99.90      -99.90      -99.90      -99.90      -99.90      -99.90      -99.90      -99.90      -99.90    
       -99.90      -99.90      -99.90      -99.90      -99.90      -99.90      -99.90      -99.90      -99.90      -99.90    
       -99.90      -99.90      -99.90      -99.90      -99.90      -99.90      -99.90      -99.90      -99.90      -99.90    
       -99.90      -99.90      -99.90      -99.90      -99.90      -99.90      -99.90      -99.90      -99.90      -99.90    
  22   -99.90      -99.90      -99.90      -99.90      -99.90      -99.90      -99.90      -99.90      -99.90      -99.90    
       -99.90      -99.90      -99.90      -99.90      -99.90      -99.90      -99.90      -99.90      -99.90      -99.90    
       -99.90      -99.90      -99.90      -99.90      -99.90      -99.90      -99.90      -99.90      -99.90      -99.90    
       -99.90      -99.90      -99.90      -99.90      -99.90      -99.90      -99.90      -99.90      -99.90      -99.90    
  23   -99.90      -99.90      -99.90      -99.90      -99.90      -99.90      -99.90      -99.90      -99.90      -99.90    
       -99.90      -99.90      -99.90      -99.90      -99.90      -99.90      -99.90      -99.90      -99.90      -99.90    
       -99.90      -99.90      -99.90      -99.90      -99.90      -99.90      -99.90      -99.90      -99.90      -99.90    
       -99.90      -99.90      -99.90      -99.90      -99.90      -99.90      -99.90      -99.90      -99.90      -99.90    
  24   -99.90      -99.90      -99.90      -99.90      -99.90      -99.90      -99.90      -99.90      -99.90      -99.90    
       -99.90      -99.90      -99.90      -99.90      -99.90      -99.90      -99.90      -99.90      -99.90      -99.90    
       -99.90      -99.90      -99.90      -99.90      -99.90      -99.90      -99.90      -99.90      -99.90      -99.90    
       -99.90      -99.90      -99.90      -99.90      -99.90      -99.90      -99.90      -99.90      -99.90      -99.90    
  25   -99.90      -99.90      -99.90      -99.90      -99.90      -99.90      -99.90      -99.90      -99.90      -99.90    
       -99.90      -99.90      -99.90      -99.90      -99.90      -99.90      -99.90      -99.90      -99.90      -99.90    
       -99.90      -99.90      -99.90      -99.90      -99.90      -99.90      -99.90      -99.90      -99.90      -99.90    
       -99.90      -99.90      -99.90      -99.90      -99.90      -99.90      -99.90      -99.90      -99.90      -99.90    
  26   -99.90      -99.90      -99.90      -99.90      -99.90      -99.90      -99.90      -99.90      -99.90      -99.90    
       -99.90      -99.90      -99.90      -99.90      -99.90      -99.90      -99.90      -99.90      -99.90      -99.90    
       -99.90      -99.90      -99.90      -99.90      -99.90      -99.90      -99.90      -99.90      -99.90      -99.90    
       -99.90      -99.90      -99.90      -99.90      -99.90      -99.90      -99.90      -99.90      -99.90      -99.90    
  27   -99.90      -99.90      -99.90      -99.90      -99.90      -99.90      -99.90      -99.90      -99.90      -99.90    
       -99.90      -99.90      -99.90      -99.90      -99.90      -99.90      -99.90      -99.90      -99.90      -99.90    
       -99.90      -99.90      -99.90      -99.90      -99.90      -99.90      -99.90      -99.90      -99.90      -99.90    
       -99.90      -99.90      -99.90      -99.90      -99.90      -99.90      -99.90      -99.90      -99.90      -99.90    
  28   -99.90      -99.90      -99.90      -99.90      -99.90      -99.90      -99.90      -99.90      -99.90      -99.90    
       -99.90      -99.90      -99.90      -99.90      -99.90      -99.90      -99.90      -99.90      -99.90      -99.90    
       -99.90      -99.90      -99.90      -99.90      -99.90      -99.90      -99.90      -99.90      -99.90      -99.90    
       -99.90      -99.90      -99.90      -99.90      -99.90      -99.90      -99.90      -99.90      -99.90      -99.90    
  29   -99.90      -99.90      -99.90      -99.90      -99.90      -99.90      -99.90      -99.90      -99.90      -99.90    
       -99.90      -99.90      -99.90      -99.90      -99.90      -99.90      -99.90      -99.90      -99.90      -99.90    
       -99.90      -99.90      -99.90      -99.90      -99.90      -99.90      -99.90      -99.90      -99.90      -99.90    
       -99.90      -99.90      -99.90      -99.90      -99.90      -99.90      -99.90      -99.90      -99.90      -99.90    
  30   -99.90      -99.90      -99.90      -99.90      -99.90      -99.90      -99.90      -99.90      -99.90      -99.90    
       -99.90      -99.90      -99.90      -99.90      -99.90      -99.90      -99.90      -99.90      -99.90      -99.90    
       -99.90      -99.90      -99.90      -99.90      -99.90      -99.90      -99.90      -99.90      -99.90      -99.90    
       -99.90      -99.90      -99.90      -99.90      -99.90      -99.90      -99.90      -99.90      -99.90      -99.90    
  31   -99.90      -99.90      -99.90      -99.90      -99.90      -99.90      -99.90      -99.90      -99.90      -99.90    
       -99.90      -99.90      -99.90      -99.90      -99.90      -99.90      -99.90      -99.90      -99.90      -99.90    
       -99.90      -99.90      -99.90      -99.90      -99.90      -99.90      -99.90      -99.90      -99.90      -99.90    
       -99.90      -99.90      -99.90      -99.90      -99.90      -99.90      -99.90      -99.90      -99.90      -99.90    
  32   -99.90      -99.90      -99.90      -99.90      -99.90      -99.90      -99.90      -99.90      -99.90      -99.90    
       -99.90      -99.90      -99.90      -99.90      -99.90      -99.90      -99.90      -99.90      -99.90      -99.90    
       -99.90      -99.90      -99.90      -99.90      -99.90      -99.90      -99.90      -99.90      -99.90      -99.90    
       -99.90      -99.90      -99.90      -99.90      -99.90      -99.90      -99.90      -99.90      -99.90      -99.90    
  33   -99.90      -99.90      -99.90      -99.90      -99.90      -99.90      -99.90      -99.90      -99.90      -99.90    
       -99.90      -99.90      -99.90      -99.90      -99.90      -99.90      -99.90      -99.90      -99.90      -99.90    
       -99.90      -99.90      -99.90      -99.90      -99.90      -99.90      -99.90      -99.90      -99.90      -99.90    
       -99.90      -99.90      -99.90      -99.90      -99.90      -99.90      -99.90      -99.90      -99.90      -99.90    
  34   -99.90      -99.90      -99.90      -99.90      -99.90      -99.90      -99.90      -99.90      -99.90      -99.90    
       -99.90      -99.90      -99.90      -99.90      -99.90      -99.90      -99.90      -99.90      -99.90      -99.90    
       -99.90      -99.90      -99.90      -99.90      -99.90      -99.90      -99.90      -99.90      -99.90      -99.90    
       -99.90      -99.90      -99.90      -99.90      -99.90      -99.90      -99.90      -99.90      -99.90      -99.90    
  35   -99.90      -99.90      -99.90      -99.90      -99.90      -99.90      -99.90      -99.90      -99.90      -99.90    
       -99.90      -99.90      -99.90      -99.90      -99.90      -99.90      -99.90      -99.90      -99.90      -99.90    
       -99.90      -99.90      -99.90      -99.90      -99.90      -99.90      -99.90      -99.90      -99.90      -99.90    
       -99.90      -99.90      -99.90      -99.90      -99.90      -99.90      -99.90      -99.90      -99.90      -99.90    
  36   -99.90      -99.90      -99.90      -99.90      -99.90      -99.90      -99.90      -99.90      -99.90      -99.90    
       -99.90      -99.90      -99.90      -99.90      -99.90      -99.90      -99.90      -99.90      -99.90      -99.90    
       -99.90      -99.90      -99.90      -99.90      -99.90      -99.90      -99.90      -99.90      -99.90      -99.90    
       -99.90      -99.90      -99.90      -99.90      -99.90      -99.90      -99.90      -99.90      -99.90      -99.90    
  37   -99.90      -99.90      -99.90      -99.90      -99.90      -99.90      -99.90      -99.90      -99.90      -99.90    
       -99.90      -99.90      -99.90      -99.90      -99.90      -99.90      -99.90      -99.90      -99.90      -99.90    
       -99.90      -99.90      -99.90      -99.90      -99.90      -99.90      -99.90      -99.90      -99.90      -99.90    
       -99.90      -99.90      -99.90      -99.90      -99.90      -99.90      -99.90      -99.90      -99.90      -99.90    
  38   -99.90      -99.90      -99.90      -99.90      -99.90      -99.90      -99.90      -99.90      -99.90      -99.90    
       -99.90      -99.90      -99.90      -99.90      -99.90      -99.90      -99.90      -99.90      -99.90      -99.90    
       -99.90      -99.90      -99.90      -99.90      -99.90      -99.90      -99.90      -99.90      -99.90      -99.90    
       -99.90      -99.90      -99.90      -99.90      -99.90      -99.90      -99.90      -99.90      -99.90      -99.90    
  39   -99.90      -99.90      -99.90      -99.90      -99.90      -99.90      -99.90      -99.90      -99.90      -99.90    
       -99.90      -99.90      -99.90      -99.90      -99.90      -99.90      -99.90      -99.90      -99.90      -99.90    
       -99.90      -99.90      -99.90      -99.90      -99.90      -99.90      -99.90      -99.90      -99.90      -99.90    
       -99.90      -99.90      -99.90      -99.90      -99.90      -99.90      -99.90      -99.90      -99.90      -99.90    
  40   -99.90      -99.90      -99.90      -99.90      -99.90      -99.90      -99.90      -99.90      -99.90      -99.90    
       -99.90      -99.90      -99.90      -99.90      -99.90      -99.90      -99.90      -99.90      -99.90      -99.90    
       -99.90      -99.90      -99.90      -99.90      -99.90      -99.90      -99.90      -99.90      -99.90      -99.90    
       -99.90      -99.90      -99.90      -99.90      -99.90      -99.90      -99.90      -99.90      -99.90      -99.90    
1
              HEAD IN LAYER   9 AT END OF TIME STEP   1 IN STRESS PERIOD    1
  ---------------------------------------------------------------------------

            1           2           3           4           5           6           7           8           9          10
           11          12          13          14          15          16          17          18          19          20
           21          22          23          24          25          26          27          28          29          30
           31          32          33          34          35          36          37          38          39          40
 ........................................................................................................................
   1    28.75       28.35       25.75       25.26       25.09       25.03       25.01       25.00       25.00       25.00    
        25.00       25.00       25.00       25.00       25.00       25.00       25.00      -99.90      -99.90      -99.90    
       -99.90      -99.90      -99.90      -99.90      -99.90      -99.90      -99.90      -99.90      -99.90      -99.90    
       -99.90      -99.90      -99.90      -99.90      -99.90      -99.90      -99.90      -99.90      -99.90      -99.90    
   2    28.35       28.02       25.61       25.21       25.08       25.03       25.01       25.00       25.00       25.00    
        25.00       25.00       25.00       25.00       25.00       25.00       25.00      -99.90      -99.90      -99.90    
       -99.90      -99.90      -99.90      -99.90      -99.90      -99.90      -99.90      -99.90      -99.90      -99.90    
       -99.90      -99.90      -99.90      -99.90      -99.90      -99.90      -99.90      -99.90      -99.90      -99.90    
   3    25.75       25.61       25.28       25.12       25.05       25.02       25.01       25.00       25.00       25.00    
        25.00       25.00       25.00       25.00       25.00       25.00       25.00      -99.90      -99.90      -99.90    
       -99.90      -99.90      -99.90      -99.90      -99.90      -99.90      -99.90      -99.90      -99.90      -99.90    
       -99.90      -99.90      -99.90      -99.90      -99.90      -99.90      -99.90      -99.90      -99.90      -99.90    
   4    25.26       25.21       25.12       25.06       25.03       25.01       25.01       25.00       25.00       25.00    
        25.00       25.00       25.00       25.00       25.00       25.00       25.00      -99.90      -99.90      -99.90    
       -99.90      -99.90      -99.90      -99.90      -99.90      -99.90      -99.90      -99.90      -99.90      -99.90    
       -99.90      -99.90      -99.90      -99.90      -99.90      -99.90      -99.90      -99.90      -99.90      -99.90    
   5    25.09       25.08       25.05       25.03       25.01       25.01       25.00       25.00       25.00       25.00    
        25.00       25.00       25.00       25.00       25.00       25.00      -99.90      -99.90      -99.90      -99.90    
       -99.90      -99.90      -99.90      -99.90      -99.90      -99.90      -99.90      -99.90      -99.90      -99.90    
       -99.90      -99.90      -99.90      -99.90      -99.90      -99.90      -99.90      -99.90      -99.90      -99.90    
   6    25.03       25.03       25.02       25.01       25.01       25.00       25.00       25.00       25.00       25.00    
        25.00       25.00       25.00       25.00       25.00       25.00      -99.90      -99.90      -99.90      -99.90    
       -99.90      -99.90      -99.90      -99.90      -99.90      -99.90      -99.90      -99.90      -99.90      -99.90    
       -99.90      -99.90      -99.90      -99.90      -99.90      -99.90      -99.90      -99.90      -99.90      -99.90    
   7    25.01       25.01       25.01       25.01       25.00       25.00       25.00       25.00       25.00       25.00    
        25.00       25.00       25.00       25.00       25.00       25.00      -99.90      -99.90      -99.90      -99.90    
       -99.90      -99.90      -99.90      -99.90      -99.90      -99.90      -99.90      -99.90      -99.90      -99.90    
       -99.90      -99.90      -99.90      -99.90      -99.90      -99.90      -99.90      -99.90      -99.90      -99.90    
   8    25.00       25.00       25.00       25.00       25.00       25.00       25.00       25.00       25.00       25.00    
        25.00       25.00       25.00       25.00       25.00      -99.90      -99.90      -99.90      -99.90      -99.90    
       -99.90      -99.90      -99.90      -99.90      -99.90      -99.90      -99.90      -99.90      -99.90      -99.90    
       -99.90      -99.90      -99.90      -99.90      -99.90      -99.90      -99.90      -99.90      -99.90      -99.90    
   9    25.00       25.00       25.00       25.00       25.00       25.00       25.00       25.00       25.00       25.00    
        25.00       25.00       25.00       25.00       25.00      -99.90      -99.90      -99.90      -99.90      -99.90    
       -99.90      -99.90      -99.90      -99.90      -99.90      -99.90      -99.90      -99.90      -99.90      -99.90    
       -99.90      -99.90      -99.90      -99.90      -99.90      -99.90      -99.90      -99.90      -99.90      -99.90    
  10    25.00       25.00       25.00       25.00       25.00       25.00       25.00       25.00       25.00       25.00    
        25.00       25.00       25.00       25.00      -99.90      -99.90      -99.90      -99.90      -99.90      -99.90    
       -99.90      -99.90      -99.90      -99.90      -99.90      -99.90      -99.90      -99.90      -99.90      -99.90    
       -99.90      -99.90      -99.90      -99.90      -99.90      -99.90      -99.90      -99.90      -99.90      -99.90    
  11    25.00       25.00       25.00       25.00       25.00       25.00       25.00       25.00       25.00       25.00    
        25.00       25.00       25.00      -99.90      -99.90      -99.90      -99.90      -99.90      -99.90      -99.90    
       -99.90      -99.90      -99.90      -99.90      -99.90      -99.90      -99.90      -99.90      -99.90      -99.90    
       -99.90      -99.90      -99.90      -99.90      -99.90      -99.90      -99.90      -99.90      -99.90      -99.90    
  12    25.00       25.00       25.00       25.00       25.00       25.00       25.00       25.00       25.00       25.00    
        25.00       25.00      -99.90      -99.90      -99.90      -99.90      -99.90      -99.90      -99.90      -99.90    
       -99.90      -99.90      -99.90      -99.90      -99.90      -99.90      -99.90      -99.90      -99.90      -99.90    
       -99.90      -99.90      -99.90      -99.90      -99.90      -99.90      -99.90      -99.90      -99.90      -99.90    
  13    25.00       25.00       25.00       25.00       25.00       25.00       25.00       25.00       25.00       25.00    
        25.00      -99.90      -99.90      -99.90      -99.90      -99.90      -99.90      -99.90      -99.90      -99.90    
       -99.90      -99.90      -99.90      -99.90      -99.90      -99.90      -99.90      -99.90      -99.90      -99.90    
       -99.90      -99.90      -99.90      -99.90      -99.90      -99.90      -99.90      -99.90      -99.90      -99.90    
  14    25.00       25.00       25.00       25.00       25.00       25.00       25.00       25.00       25.00       25.00    
       -99.90      -99.90      -99.90      -99.90      -99.90      -99.90      -99.90      -99.90      -99.90      -99.90    
       -99.90      -99.90      -99.90      -99.90      -99.90      -99.90      -99.90      -99.90      -99.90      -99.90    
       -99.90      -99.90      -99.90      -99.90      -99.90      -99.90      -99.90      -99.90      -99.90      -99.90    
  15    25.00       25.00       25.00       25.00       25.00       25.00       25.00       25.00       25.00      -99.90    
       -99.90      -99.90      -99.90      -99.90      -99.90      -99.90      -99.90      -99.90      -99.90      -99.90    
       -99.90      -99.90      -99.90      -99.90      -99.90      -99.90      -99.90      -99.90      -99.90      -99.90    
       -99.90      -99.90      -99.90      -99.90      -99.90      -99.90      -99.90      -99.90      -99.90      -99.90    
  16    25.00       25.00       25.00       25.00       25.00       25.00       25.00      -99.90      -99.90      -99.90    
       -99.90      -99.90      -99.90      -99.90      -99.90      -99.90      -99.90      -99.90      -99.90      -99.90    
       -99.90      -99.90      -99.90      -99.90      -99.90      -99.90      -99.90      -99.90      -99.90      -99.90    
       -99.90      -99.90      -99.90      -99.90      -99.90      -99.90      -99.90      -99.90      -99.90      -99.90    
  17    25.00       25.00       25.00       25.00      -99.90      -99.90      -99.90      -99.90      -99.90      -99.90    
       -99.90      -99.90      -99.90      -99.90      -99.90      -99.90      -99.90      -99.90      -99.90      -99.90    
       -99.90      -99.90      -99.90      -99.90      -99.90      -99.90      -99.90      -99.90      -99.90      -99.90    
       -99.90      -99.90      -99.90      -99.90      -99.90      -99.90      -99.90      -99.90      -99.90      -99.90    
  18   -99.90      -99.90      -99.90      -99.90      -99.90      -99.90      -99.90      -99.90      -99.90      -99.90    
       -99.90      -99.90      -99.90      -99.90      -99.90      -99.90      -99.90      -99.90      -99.90      -99.90    
       -99.90      -99.90      -99.90      -99.90      -99.90      -99.90      -99.90      -99.90      -99.90      -99.90    
       -99.90      -99.90      -99.90      -99.90      -99.90      -99.90      -99.90      -99.90      -99.90      -99.90    
  19   -99.90      -99.90      -99.90      -99.90      -99.90      -99.90      -99.90      -99.90      -99.90      -99.90    
       -99.90      -99.90      -99.90      -99.90      -99.90      -99.90      -99.90      -99.90      -99.90      -99.90    
       -99.90      -99.90      -99.90      -99.90      -99.90      -99.90      -99.90      -99.90      -99.90      -99.90    
       -99.90      -99.90      -99.90      -99.90      -99.90      -99.90      -99.90      -99.90      -99.90      -99.90    
  20   -99.90      -99.90      -99.90      -99.90      -99.90      -99.90      -99.90      -99.90      -99.90      -99.90    
       -99.90      -99.90      -99.90      -99.90      -99.90      -99.90      -99.90      -99.90      -99.90      -99.90    
       -99.90      -99.90      -99.90      -99.90      -99.90      -99.90      -99.90      -99.90      -99.90      -99.90    
       -99.90      -99.90      -99.90      -99.90      -99.90      -99.90      -99.90      -99.90      -99.90      -99.90    
  21   -99.90      -99.90      -99.90      -99.90      -99.90      -99.90      -99.90      -99.90      -99.90      -99.90    
       -99.90      -99.90      -99.90      -99.90      -99.90      -99.90      -99.90      -99.90      -99.90      -99.90    
       -99.90      -99.90      -99.90      -99.90      -99.90      -99.90      -99.90      -99.90      -99.90      -99.90    
       -99.90      -99.90      -99.90      -99.90      -99.90      -99.90      -99.90      -99.90      -99.90      -99.90    
  22   -99.90      -99.90      -99.90      -99.90      -99.90      -99.90      -99.90      -99.90      -99.90      -99.90    
       -99.90      -99.90      -99.90      -99.90      -99.90      -99.90      -99.90      -99.90      -99.90      -99.90    
       -99.90      -99.90      -99.90      -99.90      -99.90      -99.90      -99.90      -99.90      -99.90      -99.90    
       -99.90      -99.90      -99.90      -99.90      -99.90      -99.90      -99.90      -99.90      -99.90      -99.90    
  23   -99.90      -99.90      -99.90      -99.90      -99.90      -99.90      -99.90      -99.90      -99.90      -99.90    
       -99.90      -99.90      -99.90      -99.90      -99.90      -99.90      -99.90      -99.90      -99.90      -99.90    
       -99.90      -99.90      -99.90      -99.90      -99.90      -99.90      -99.90      -99.90      -99.90      -99.90    
       -99.90      -99.90      -99.90      -99.90      -99.90      -99.90      -99.90      -99.90      -99.90      -99.90    
  24   -99.90      -99.90      -99.90      -99.90      -99.90      -99.90      -99.90      -99.90      -99.90      -99.90    
       -99.90      -99.90      -99.90      -99.90      -99.90      -99.90      -99.90      -99.90      -99.90      -99.90    
       -99.90      -99.90      -99.90      -99.90      -99.90      -99.90      -99.90      -99.90      -99.90      -99.90    
       -99.90      -99.90      -99.90      -99.90      -99.90      -99.90      -99.90      -99.90      -99.90      -99.90    
  25   -99.90      -99.90      -99.90      -99.90      -99.90      -99.90      -99.90      -99.90      -99.90      -99.90    
       -99.90      -99.90      -99.90      -99.90      -99.90      -99.90      -99.90      -99.90      -99.90      -99.90    
       -99.90      -99.90      -99.90      -99.90      -99.90      -99.90      -99.90      -99.90      -99.90      -99.90    
       -99.90      -99.90      -99.90      -99.90      -99.90      -99.90      -99.90      -99.90      -99.90      -99.90    
  26   -99.90      -99.90      -99.90      -99.90      -99.90      -99.90      -99.90      -99.90      -99.90      -99.90    
       -99.90      -99.90      -99.90      -99.90      -99.90      -99.90      -99.90      -99.90      -99.90      -99.90    
       -99.90      -99.90      -99.90      -99.90      -99.90      -99.90      -99.90      -99.90      -99.90      -99.90    
       -99.90      -99.90      -99.90      -99.90      -99.90      -99.90      -99.90      -99.90      -99.90      -99.90    
  27   -99.90      -99.90      -99.90      -99.90      -99.90      -99.90      -99.90      -99.90      -99.90      -99.90    
       -99.90      -99.90      -99.90      -99.90      -99.90      -99.90      -99.90      -99.90      -99.90      -99.90    
       -99.90      -99.90      -99.90      -99.90      -99.90      -99.90      -99.90      -99.90      -99.90      -99.90    
       -99.90      -99.90      -99.90      -99.90      -99.90      -99.90      -99.90      -99.90      -99.90      -99.90    
  28   -99.90      -99.90      -99.90      -99.90      -99.90      -99.90      -99.90      -99.90      -99.90      -99.90    
       -99.90      -99.90      -99.90      -99.90      -99.90      -99.90      -99.90      -99.90      -99.90      -99.90    
       -99.90      -99.90      -99.90      -99.90      -99.90      -99.90      -99.90      -99.90      -99.90      -99.90    
       -99.90      -99.90      -99.90      -99.90      -99.90      -99.90      -99.90      -99.90      -99.90      -99.90    
  29   -99.90      -99.90      -99.90      -99.90      -99.90      -99.90      -99.90      -99.90      -99.90      -99.90    
       -99.90      -99.90      -99.90      -99.90      -99.90      -99.90      -99.90      -99.90      -99.90      -99.90    
       -99.90      -99.90      -99.90      -99.90      -99.90      -99.90      -99.90      -99.90      -99.90      -99.90    
       -99.90      -99.90      -99.90      -99.90      -99.90      -99.90      -99.90      -99.90      -99.90      -99.90    
  30   -99.90      -99.90      -99.90      -99.90      -99.90      -99.90      -99.90      -99.90      -99.90      -99.90    
       -99.90      -99.90      -99.90      -99.90      -99.90      -99.90      -99.90      -99.90      -99.90      -99.90    
       -99.90      -99.90      -99.90      -99.90      -99.90      -99.90      -99.90      -99.90      -99.90      -99.90    
       -99.90      -99.90      -99.90      -99.90      -99.90      -99.90      -99.90      -99.90      -99.90      -99.90    
  31   -99.90      -99.90      -99.90      -99.90      -99.90      -99.90      -99.90      -99.90      -99.90      -99.90    
       -99.90      -99.90      -99.90      -99.90      -99.90      -99.90      -99.90      -99.90      -99.90      -99.90    
       -99.90      -99.90      -99.90      -99.90      -99.90      -99.90      -99.90      -99.90      -99.90      -99.90    
       -99.90      -99.90      -99.90      -99.90      -99.90      -99.90      -99.90      -99.90      -99.90      -99.90    
  32   -99.90      -99.90      -99.90      -99.90      -99.90      -99.90      -99.90      -99.90      -99.90      -99.90    
       -99.90      -99.90      -99.90      -99.90      -99.90      -99.90      -99.90      -99.90      -99.90      -99.90    
       -99.90      -99.90      -99.90      -99.90      -99.90      -99.90      -99.90      -99.90      -99.90      -99.90    
       -99.90      -99.90      -99.90      -99.90      -99.90      -99.90      -99.90      -99.90      -99.90      -99.90    
  33   -99.90      -99.90      -99.90      -99.90      -99.90      -99.90      -99.90      -99.90      -99.90      -99.90    
       -99.90      -99.90      -99.90      -99.90      -99.90      -99.90      -99.90      -99.90      -99.90      -99.90    
       -99.90      -99.90      -99.90      -99.90      -99.90      -99.90      -99.90      -99.90      -99.90      -99.90    
       -99.90      -99.90      -99.90      -99.90      -99.90      -99.90      -99.90      -99.90      -99.90      -99.90    
  34   -99.90      -99.90      -99.90      -99.90      -99.90      -99.90      -99.90      -99.90      -99.90      -99.90    
       -99.90      -99.90      -99.90      -99.90      -99.90      -99.90      -99.90      -99.90      -99.90      -99.90    
       -99.90      -99.90      -99.90      -99.90      -99.90      -99.90      -99.90      -99.90      -99.90      -99.90    
       -99.90      -99.90      -99.90      -99.90      -99.90      -99.90      -99.90      -99.90      -99.90      -99.90    
  35   -99.90      -99.90      -99.90      -99.90      -99.90      -99.90      -99.90      -99.90      -99.90      -99.90    
       -99.90      -99.90      -99.90      -99.90      -99.90      -99.90      -99.90      -99.90      -99.90      -99.90    
       -99.90      -99.90      -99.90      -99.90      -99.90      -99.90      -99.90      -99.90      -99.90      -99.90    
       -99.90      -99.90      -99.90      -99.90      -99.90      -99.90      -99.90      -99.90      -99.90      -99.90    
  36   -99.90      -99.90      -99.90      -99.90      -99.90      -99.90      -99.90      -99.90      -99.90      -99.90    
       -99.90      -99.90      -99.90      -99.90      -99.90      -99.90      -99.90      -99.90      -99.90      -99.90    
       -99.90      -99.90      -99.90      -99.90      -99.90      -99.90      -99.90      -99.90      -99.90      -99.90    
       -99.90      -99.90      -99.90      -99.90      -99.90      -99.90      -99.90      -99.90      -99.90      -99.90    
  37   -99.90      -99.90      -99.90      -99.90      -99.90      -99.90      -99.90      -99.90      -99.90      -99.90    
       -99.90      -99.90      -99.90      -99.90      -99.90      -99.90      -99.90      -99.90      -99.90      -99.90    
       -99.90      -99.90      -99.90      -99.90      -99.90      -99.90      -99.90      -99.90      -99.90      -99.90    
       -99.90      -99.90      -99.90      -99.90      -99.90      -99.90      -99.90      -99.90      -99.90      -99.90    
  38   -99.90      -99.90      -99.90      -99.90      -99.90      -99.90      -99.90      -99.90      -99.90      -99.90    
       -99.90      -99.90      -99.90      -99.90      -99.90      -99.90      -99.90      -99.90      -99.90      -99.90    
       -99.90      -99.90      -99.90      -99.90      -99.90      -99.90      -99.90      -99.90      -99.90      -99.90    
       -99.90      -99.90      -99.90      -99.90      -99.90      -99.90      -99.90      -99.90      -99.90      -99.90    
  39   -99.90      -99.90      -99.90      -99.90      -99.90      -99.90      -99.90      -99.90      -99.90      -99.90    
       -99.90      -99.90      -99.90      -99.90      -99.90      -99.90      -99.90      -99.90      -99.90      -99.90    
       -99.90      -99.90      -99.90      -99.90      -99.90      -99.90      -99.90      -99.90      -99.90      -99.90    
       -99.90      -99.90      -99.90      -99.90      -99.90      -99.90      -99.90      -99.90      -99.90      -99.90    
  40   -99.90      -99.90      -99.90      -99.90      -99.90      -99.90      -99.90      -99.90      -99.90      -99.90    
       -99.90      -99.90      -99.90      -99.90      -99.90      -99.90      -99.90      -99.90      -99.90      -99.90    
       -99.90      -99.90      -99.90      -99.90      -99.90      -99.90      -99.90      -99.90      -99.90      -99.90    
       -99.90      -99.90      -99.90      -99.90      -99.90      -99.90      -99.90      -99.90      -99.90      -99.90    
1
              HEAD IN LAYER  10 AT END OF TIME STEP   1 IN STRESS PERIOD    1
  ---------------------------------------------------------------------------

            1           2           3           4           5           6           7           8           9          10
           11          12          13          14          15          16          17          18          19          20
           21          22          23          24          25          26          27          28          29          30
           31          32          33          34          35          36          37          38          39          40
 ........................................................................................................................
   1    28.55       28.07       25.89       25.31       25.11       25.04       25.02       25.01       25.00       25.00    
        25.00       25.00       25.00       25.00       25.00       25.00       25.00       25.00       25.00       25.00    
        25.00       25.00       25.00       25.00       25.00       25.00       25.00       25.00       25.00       25.00    
        25.00       25.00       25.00       25.00       25.00       25.00       25.00       25.00       25.00       25.00    
   2    28.07       27.67       25.73       25.25       25.09       25.03       25.01       25.00       25.00       25.00    
        25.00       25.00       25.00       25.00       25.00       25.00       25.00       25.00       25.00       25.00    
        25.00       25.00       25.00       25.00       25.00       25.00       25.00       25.00       25.00       25.00    
        25.00       25.00       25.00       25.00       25.00       25.00       25.00       25.00       25.00       25.00    
   3    25.89       25.73       25.34       25.15       25.06       25.02       25.01       25.00       25.00       25.00    
        25.00       25.00       25.00       25.00       25.00       25.00       25.00       25.00       25.00       25.00    
        25.00       25.00       25.00       25.00       25.00       25.00       25.00       25.00       25.00       25.00    
        25.00       25.00       25.00       25.00       25.00       25.00       25.00       25.00       25.00       25.00    
   4    25.31       25.25       25.15       25.07       25.03       25.01       25.01       25.00       25.00       25.00    
        25.00       25.00       25.00       25.00       25.00       25.00       25.00       25.00       25.00       25.00    
        25.00       25.00       25.00       25.00       25.00       25.00       25.00       25.00       25.00       25.00    
        25.00       25.00       25.00       25.00       25.00       25.00       25.00       25.00       25.00       25.00    
   5    25.11       25.09       25.06       25.03       25.02       25.01       25.00       25.00       25.00       25.00    
        25.00       25.00       25.00       25.00       25.00       25.00       25.00       25.00       25.00       25.00    
        25.00       25.00       25.00       25.00       25.00       25.00       25.00       25.00       25.00       25.00    
        25.00       25.00       25.00       25.00       25.00       25.00       25.00       25.00       25.00       25.00    
   6    25.04       25.03       25.02       25.01       25.01       25.00       25.00       25.00       25.00       25.00    
        25.00       25.00       25.00       25.00       25.00       25.00       25.00       25.00       25.00       25.00    
        25.00       25.00       25.00       25.00       25.00       25.00       25.00       25.00       25.00       25.00    
        25.00       25.00       25.00       25.00       25.00       25.00       25.00       25.00       25.00       25.00    
   7    25.02       25.01       25.01       25.01       25.00       25.00       25.00       25.00       25.00       25.00    
        25.00       25.00       25.00       25.00       25.00       25.00       25.00       25.00       25.00       25.00    
        25.00       25.00       25.00       25.00       25.00       25.00       25.00       25.00       25.00       25.00    
        25.00       25.00       25.00       25.00       25.00       25.00       25.00       25.00       25.00       25.00    
   8    25.01       25.00       25.00       25.00       25.00       25.00       25.00       25.00       25.00       25.00    
        25.00       25.00       25.00       25.00       25.00       25.00       25.00       25.00       25.00       25.00    
        25.00       25.00       25.00       25.00       25.00       25.00       25.00       25.00       25.00       25.00    
        25.00       25.00       25.00       25.00       25.00       25.00       25.00       25.00       25.00       25.00    
   9    25.00       25.00       25.00       25.00       25.00       25.00       25.00       25.00       25.00       25.00    
        25.00       25.00       25.00       25.00       25.00       25.00       25.00       25.00       25.00       25.00    
        25.00       25.00       25.00       25.00       25.00       25.00       25.00       25.00       25.00       25.00    
        25.00       25.00       25.00       25.00       25.00       25.00       25.00       25.00       25.00       25.00    
  10    25.00       25.00       25.00       25.00       25.00       25.00       25.00       25.00       25.00       25.00    
        25.00       25.00       25.00       25.00       25.00       25.00       25.00       25.00       25.00       25.00    
        25.00       25.00       25.00       25.00       25.00       25.00       25.00       25.00       25.00       25.00    
        25.00       25.00       25.00       25.00       25.00       25.00       25.00       25.00       25.00       25.00    
  11    25.00       25.00       25.00       25.00       25.00       25.00       25.00       25.00       25.00       25.00    
        25.00       25.00       25.00       25.00       25.00       25.00       25.00       25.00       25.00       25.00    
        25.00       25.00       25.00       25.00       25.00       25.00       25.00       25.00       25.00       25.00    
        25.00       25.00       25.00       25.00       25.00       25.00       25.00       25.00       25.00       25.00    
  12    25.00       25.00       25.00       25.00       25.00       25.00       25.00       25.00       25.00       25.00    
        25.00       25.00       25.00       25.00       25.00       25.00       25.00       25.00       25.00       25.00    
        25.00       25.00       25.00       25.00       25.00       25.00       25.00       25.00       25.00       25.00    
        25.00       25.00       25.00       25.00       25.00       25.00       25.00       25.00       25.00       25.00    
  13    25.00       25.00       25.00       25.00       25.00       25.00       25.00       25.00       25.00       25.00    
        25.00       25.00       25.00       25.00       25.00       25.00       25.00       25.00       25.00       25.00    
        25.00       25.00       25.00       25.00       25.00       25.00       25.00       25.00       25.00       25.00    
        25.00       25.00       25.00       25.00       25.00       25.00       25.00       25.00       25.00       25.00    
  14    25.00       25.00       25.00       25.00       25.00       25.00       25.00       25.00       25.00       25.00    
        25.00       25.00       25.00       25.00       25.00       25.00       25.00       25.00       25.00       25.00    
        25.00       25.00       25.00       25.00       25.00       25.00       25.00       25.00       25.00       25.00    
        25.00       25.00       25.00       25.00       25.00       25.00       25.00       25.00       25.00       25.00    
  15    25.00       25.00       25.00       25.00       25.00       25.00       25.00       25.00       25.00       25.00    
        25.00       25.00       25.00       25.00       25.00       25.00       25.00       25.00       25.00       25.00    
        25.00       25.00       25.00       25.00       25.00       25.00       25.00       25.00       25.00       25.00    
        25.00       25.00       25.00       25.00       25.00       25.00       25.00       25.00       25.00       25.00    
  16    25.00       25.00       25.00       25.00       25.00       25.00       25.00       25.00       25.00       25.00    
        25.00       25.00       25.00       25.00       25.00       25.00       25.00       25.00       25.00       25.00    
        25.00       25.00       25.00       25.00       25.00       25.00       25.00       25.00       25.00       25.00    
        25.00       25.00       25.00       25.00       25.00       25.00       25.00       25.00       25.00       25.00    
  17    25.00       25.00       25.00       25.00       25.00       25.00       25.00       25.00       25.00       25.00    
        25.00       25.00       25.00       25.00       25.00       25.00       25.00       25.00       25.00       25.00    
        25.00       25.00       25.00       25.00       25.00       25.00       25.00       25.00       25.00       25.00    
        25.00       25.00       25.00       25.00       25.00       25.00       25.00       25.00       25.00       25.00    
  18    25.00       25.00       25.00       25.00       25.00       25.00       25.00       25.00       25.00       25.00    
        25.00       25.00       25.00       25.00       25.00       25.00       25.00       25.00       25.00       25.00    
        25.00       25.00       25.00       25.00       25.00       25.00       25.00       25.00       25.00       25.00    
        25.00       25.00       25.00       25.00       25.00       25.00       25.00       25.00       25.00       25.00    
  19    25.00       25.00       25.00       25.00       25.00       25.00       25.00       25.00       25.00       25.00    
        25.00       25.00       25.00       25.00       25.00       25.00       25.00       25.00       25.00       25.00    
        25.00       25.00       25.00       25.00       25.00       25.00       25.00       25.00       25.00       25.00    
        25.00       25.00       25.00       25.00       25.00       25.00       25.00       25.00       25.00       25.00    
  20    25.00       25.00       25.00       25.00       25.00       25.00       25.00       25.00       25.00       25.00    
        25.00       25.00       25.00       25.00       25.00       25.00       25.00       25.00       25.00       25.00    
        25.00       25.00       25.00       25.00       25.00       25.00       25.00       25.00       25.00       25.00    
        25.00       25.00       25.00       25.00       25.00       25.00       25.00       25.00       25.00       25.00    
  21    25.00       25.00       25.00       25.00       25.00       25.00       25.00       25.00       25.00       25.00    
        25.00       25.00       25.00       25.00       25.00       25.00       25.00       25.00       25.00       25.00    
        25.00       25.00       25.00       25.00       25.00       25.00       25.00       25.00       25.00       25.00    
        25.00       25.00       25.00       25.00       25.00       25.00       25.00       25.00       25.00       25.00    
  22    25.00       25.00       25.00       25.00       25.00       25.00       25.00       25.00       25.00       25.00    
        25.00       25.00       25.00       25.00       25.00       25.00       25.00       25.00       25.00       25.00    
        25.00       25.00       25.00       25.00       25.00       25.00       25.00       25.00       25.00       25.00    
        25.00       25.00       25.00       25.00       25.00       25.00       25.00       25.00       25.00       25.00    
  23    25.00       25.00       25.00       25.00       25.00       25.00       25.00       25.00       25.00       25.00    
        25.00       25.00       25.00       25.00       25.00       25.00       25.00       25.00       25.00       25.00    
        25.00       25.00       25.00       25.00       25.00       25.00       25.00       25.00       25.00       25.00    
        25.00       25.00       25.00       25.00       25.00       25.00       25.00       25.00       25.00       25.00    
  24    25.00       25.00       25.00       25.00       25.00       25.00       25.00       25.00       25.00       25.00    
        25.00       25.00       25.00       25.00       25.00       25.00       25.00       25.00       25.00       25.00    
        25.00       25.00       25.00       25.00       25.00       25.00       25.00       25.00       25.00       25.00    
        25.00       25.00       25.00       25.00       25.00       25.00       25.00       25.00       25.00       25.00    
  25    25.00       25.00       25.00       25.00       25.00       25.00       25.00       25.00       25.00       25.00    
        25.00       25.00       25.00       25.00       25.00       25.00       25.00       25.00       25.00       25.00    
        25.00       25.00       25.00       25.00       25.00       25.00       25.00       25.00       25.00       25.00    
        25.00       25.00       25.00       25.00       25.00       25.00       25.00       25.00       25.00       25.00    
  26    25.00       25.00       25.00       25.00       25.00       25.00       25.00       25.00       25.00       25.00    
        25.00       25.00       25.00       25.00       25.00       25.00       25.00       25.00       25.00       25.00    
        25.00       25.00       25.00       25.00       25.00       25.00       25.00       25.00       25.00       25.00    
        25.00       25.00       25.00       25.00       25.00       25.00       25.00       25.00       25.00       25.00    
  27    25.00       25.00       25.00       25.00       25.00       25.00       25.00       25.00       25.00       25.00    
        25.00       25.00       25.00       25.00       25.00       25.00       25.00       25.00       25.00       25.00    
        25.00       25.00       25.00       25.00       25.00       25.00       25.00       25.00       25.00       25.00    
        25.00       25.00       25.00       25.00       25.00       25.00       25.00       25.00       25.00       25.00    
  28    25.00       25.00       25.00       25.00       25.00       25.00       25.00       25.00       25.00       25.00    
        25.00       25.00       25.00       25.00       25.00       25.00       25.00       25.00       25.00       25.00    
        25.00       25.00       25.00       25.00       25.00       25.00       25.00       25.00       25.00       25.00    
        25.00       25.00       25.00       25.00       25.00       25.00       25.00       25.00       25.00       25.00    
  29    25.00       25.00       25.00       25.00       25.00       25.00       25.00       25.00       25.00       25.00    
        25.00       25.00       25.00       25.00       25.00       25.00       25.00       25.00       25.00       25.00    
        25.00       25.00       25.00       25.00       25.00       25.00       25.00       25.00       25.00       25.00    
        25.00       25.00       25.00       25.00       25.00       25.00       25.00       25.00       25.00       25.00    
  30    25.00       25.00       25.00       25.00       25.00       25.00       25.00       25.00       25.00       25.00    
        25.00       25.00       25.00       25.00       25.00       25.00       25.00       25.00       25.00       25.00    
        25.00       25.00       25.00       25.00       25.00       25.00       25.00       25.00       25.00       25.00    
        25.00       25.00       25.00       25.00       25.00       25.00       25.00       25.00       25.00       25.00    
  31    25.00       25.00       25.00       25.00       25.00       25.00       25.00       25.00       25.00       25.00    
        25.00       25.00       25.00       25.00       25.00       25.00       25.00       25.00       25.00       25.00    
        25.00       25.00       25.00       25.00       25.00       25.00       25.00       25.00       25.00       25.00    
        25.00       25.00       25.00       25.00       25.00       25.00       25.00       25.00       25.00       25.00    
  32    25.00       25.00       25.00       25.00       25.00       25.00       25.00       25.00       25.00       25.00    
        25.00       25.00       25.00       25.00       25.00       25.00       25.00       25.00       25.00       25.00    
        25.00       25.00       25.00       25.00       25.00       25.00       25.00       25.00       25.00       25.00    
        25.00       25.00       25.00       25.00       25.00       25.00       25.00       25.00       25.00       25.00    
  33    25.00       25.00       25.00       25.00       25.00       25.00       25.00       25.00       25.00       25.00    
        25.00       25.00       25.00       25.00       25.00       25.00       25.00       25.00       25.00       25.00    
        25.00       25.00       25.00       25.00       25.00       25.00       25.00       25.00       25.00       25.00    
        25.00       25.00       25.00       25.00       25.00       25.00       25.00       25.00       25.00       25.00    
  34    25.00       25.00       25.00       25.00       25.00       25.00       25.00       25.00       25.00       25.00    
        25.00       25.00       25.00       25.00       25.00       25.00       25.00       25.00       25.00       25.00    
        25.00       25.00       25.00       25.00       25.00       25.00       25.00       25.00       25.00       25.00    
        25.00       25.00       25.00       25.00       25.00       25.00       25.00       25.00       25.00       25.00    
  35    25.00       25.00       25.00       25.00       25.00       25.00       25.00       25.00       25.00       25.00    
        25.00       25.00       25.00       25.00       25.00       25.00       25.00       25.00       25.00       25.00    
        25.00       25.00       25.00       25.00       25.00       25.00       25.00       25.00       25.00       25.00    
        25.00       25.00       25.00       25.00       25.00       25.00       25.00       25.00       25.00       25.00    
  36    25.00       25.00       25.00       25.00       25.00       25.00       25.00       25.00       25.00       25.00    
        25.00       25.00       25.00       25.00       25.00       25.00       25.00       25.00       25.00       25.00    
        25.00       25.00       25.00       25.00       25.00       25.00       25.00       25.00       25.00       25.00    
        25.00       25.00       25.00       25.00       25.00       25.00       25.00       25.00       25.00       25.00    
  37    25.00       25.00       25.00       25.00       25.00       25.00       25.00       25.00       25.00       25.00    
        25.00       25.00       25.00       25.00       25.00       25.00       25.00       25.00       25.00       25.00    
        25.00       25.00       25.00       25.00       25.00       25.00       25.00       25.00       25.00       25.00    
        25.00       25.00       25.00       25.00       25.00       25.00       25.00       25.00       25.00       25.00    
  38    25.00       25.00       25.00       25.00       25.00       25.00       25.00       25.00       25.00       25.00    
        25.00       25.00       25.00       25.00       25.00       25.00       25.00       25.00       25.00       25.00    
        25.00       25.00       25.00       25.00       25.00       25.00       25.00       25.00       25.00       25.00    
        25.00       25.00       25.00       25.00       25.00       25.00       25.00       25.00       25.00       25.00    
  39    25.00       25.00       25.00       25.00       25.00       25.00       25.00       25.00       25.00       25.00    
        25.00       25.00       25.00       25.00       25.00       25.00       25.00       25.00       25.00       25.00    
        25.00       25.00       25.00       25.00       25.00       25.00       25.00       25.00       25.00       25.00    
        25.00       25.00       25.00       25.00       25.00       25.00       25.00       25.00       25.00       25.00    
  40    25.00       25.00       25.00       25.00       25.00       25.00       25.00       25.00       25.00       25.00    
        25.00       25.00       25.00       25.00       25.00       25.00       25.00       25.00       25.00       25.00    
        25.00       25.00       25.00       25.00       25.00       25.00       25.00       25.00       25.00       25.00    
        25.00       25.00       25.00       25.00       25.00       25.00       25.00       25.00       25.00       25.00    
1
              HEAD IN LAYER  11 AT END OF TIME STEP   1 IN STRESS PERIOD    1
  ---------------------------------------------------------------------------

            1           2           3           4           5           6           7           8           9          10
           11          12          13          14          15          16          17          18          19          20
           21          22          23          24          25          26          27          28          29          30
           31          32          33          34          35          36          37          38          39          40
 ........................................................................................................................
   1    28.40       27.86       25.98       25.35       25.13       25.05       25.02       25.01       25.00       25.00    
        25.00       25.00       25.00       25.00       25.00       25.00       25.00       25.00       25.00       25.00    
        25.00       25.00       25.00       25.00       25.00       25.00       25.00       25.00       25.00       25.00    
        25.00       25.00       25.00       25.00       25.00       25.00       25.00       25.00       25.00       25.00    
   2    27.86       27.42       25.80       25.29       25.11       25.04       25.02       25.01       25.00       25.00    
        25.00       25.00       25.00       25.00       25.00       25.00       25.00       25.00       25.00       25.00    
        25.00       25.00       25.00       25.00       25.00       25.00       25.00       25.00       25.00       25.00    
        25.00       25.00       25.00       25.00       25.00       25.00       25.00       25.00       25.00       25.00    
   3    25.98       25.80       25.39       25.17       25.07       25.03       25.01       25.00       25.00       25.00    
        25.00       25.00       25.00       25.00       25.00       25.00       25.00       25.00       25.00       25.00    
        25.00       25.00       25.00       25.00       25.00       25.00       25.00       25.00       25.00       25.00    
        25.00       25.00       25.00       25.00       25.00       25.00       25.00       25.00       25.00       25.00    
   4    25.35       25.29       25.17       25.08       25.04       25.02       25.01       25.00       25.00       25.00    
        25.00       25.00       25.00       25.00       25.00       25.00       25.00       25.00       25.00       25.00    
        25.00       25.00       25.00       25.00       25.00       25.00       25.00       25.00       25.00       25.00    
        25.00       25.00       25.00       25.00       25.00       25.00       25.00       25.00       25.00       25.00    
   5    25.13       25.11       25.07       25.04       25.02       25.01       25.00       25.00       25.00       25.00    
        25.00       25.00       25.00       25.00       25.00       25.00       25.00       25.00       25.00       25.00    
        25.00       25.00       25.00       25.00       25.00       25.00       25.00       25.00       25.00       25.00    
        25.00       25.00       25.00       25.00       25.00       25.00       25.00       25.00       25.00       25.00    
   6    25.05       25.04       25.03       25.02       25.01       25.00       25.00       25.00       25.00       25.00    
        25.00       25.00       25.00       25.00       25.00       25.00       25.00       25.00       25.00       25.00    
        25.00       25.00       25.00       25.00       25.00       25.00       25.00       25.00       25.00       25.00    
        25.00       25.00       25.00       25.00       25.00       25.00       25.00       25.00       25.00       25.00    
   7    25.02       25.02       25.01       25.01       25.00       25.00       25.00       25.00       25.00       25.00    
        25.00       25.00       25.00       25.00       25.00       25.00       25.00       25.00       25.00       25.00    
        25.00       25.00       25.00       25.00       25.00       25.00       25.00       25.00       25.00       25.00    
        25.00       25.00       25.00       25.00       25.00       25.00       25.00       25.00       25.00       25.00    
   8    25.01       25.01       25.00       25.00       25.00       25.00       25.00       25.00       25.00       25.00    
        25.00       25.00       25.00       25.00       25.00       25.00       25.00       25.00       25.00       25.00    
        25.00       25.00       25.00       25.00       25.00       25.00       25.00       25.00       25.00       25.00    
        25.00       25.00       25.00       25.00       25.00       25.00       25.00       25.00       25.00       25.00    
   9    25.00       25.00       25.00       25.00       25.00       25.00       25.00       25.00       25.00       25.00    
        25.00       25.00       25.00       25.00       25.00       25.00       25.00       25.00       25.00       25.00    
        25.00       25.00       25.00       25.00       25.00       25.00       25.00       25.00       25.00       25.00    
        25.00       25.00       25.00       25.00       25.00       25.00       25.00       25.00       25.00       25.00    
  10    25.00       25.00       25.00       25.00       25.00       25.00       25.00       25.00       25.00       25.00    
        25.00       25.00       25.00       25.00       25.00       25.00       25.00       25.00       25.00       25.00    
        25.00       25.00       25.00       25.00       25.00       25.00       25.00       25.00       25.00       25.00    
        25.00       25.00       25.00       25.00       25.00       25.00       25.00       25.00       25.00       25.00    
  11    25.00       25.00       25.00       25.00       25.00       25.00       25.00       25.00       25.00       25.00    
        25.00       25.00       25.00       25.00       25.00       25.00       25.00       25.00       25.00       25.00    
        25.00       25.00       25.00       25.00       25.00       25.00       25.00       25.00       25.00       25.00    
        25.00       25.00       25.00       25.00       25.00       25.00       25.00       25.00       25.00       25.00    
  12    25.00       25.00       25.00       25.00       25.00       25.00       25.00       25.00       25.00       25.00    
        25.00       25.00       25.00       25.00       25.00       25.00       25.00       25.00       25.00       25.00    
        25.00       25.00       25.00       25.00       25.00       25.00       25.00       25.00       25.00       25.00    
        25.00       25.00       25.00       25.00       25.00       25.00       25.00       25.00       25.00       25.00    
  13    25.00       25.00       25.00       25.00       25.00       25.00       25.00       25.00       25.00       25.00    
        25.00       25.00       25.00       25.00       25.00       25.00       25.00       25.00       25.00       25.00    
        25.00       25.00       25.00       25.00       25.00       25.00       25.00       25.00       25.00       25.00    
        25.00       25.00       25.00       25.00       25.00       25.00       25.00       25.00       25.00       25.00    
  14    25.00       25.00       25.00       25.00       25.00       25.00       25.00       25.00       25.00       25.00    
        25.00       25.00       25.00       25.00       25.00       25.00       25.00       25.00       25.00       25.00    
        25.00       25.00       25.00       25.00       25.00       25.00       25.00       25.00       25.00       25.00    
        25.00       25.00       25.00       25.00       25.00       25.00       25.00       25.00       25.00       25.00    
  15    25.00       25.00       25.00       25.00       25.00       25.00       25.00       25.00       25.00       25.00    
        25.00       25.00       25.00       25.00       25.00       25.00       25.00       25.00       25.00       25.00    
        25.00       25.00       25.00       25.00       25.00       25.00       25.00       25.00       25.00       25.00    
        25.00       25.00       25.00       25.00       25.00       25.00       25.00       25.00       25.00       25.00    
  16    25.00       25.00       25.00       25.00       25.00       25.00       25.00       25.00       25.00       25.00    
        25.00       25.00       25.00       25.00       25.00       25.00       25.00       25.00       25.00       25.00    
        25.00       25.00       25.00       25.00       25.00       25.00       25.00       25.00       25.00       25.00    
        25.00       25.00       25.00       25.00       25.00       25.00       25.00       25.00       25.00       25.00    
  17    25.00       25.00       25.00       25.00       25.00       25.00       25.00       25.00       25.00       25.00    
        25.00       25.00       25.00       25.00       25.00       25.00       25.00       25.00       25.00       25.00    
        25.00       25.00       25.00       25.00       25.00       25.00       25.00       25.00       25.00       25.00    
        25.00       25.00       25.00       25.00       25.00       25.00       25.00       25.00       25.00       25.00    
  18    25.00       25.00       25.00       25.00       25.00       25.00       25.00       25.00       25.00       25.00    
        25.00       25.00       25.00       25.00       25.00       25.00       25.00       25.00       25.00       25.00    
        25.00       25.00       25.00       25.00       25.00       25.00       25.00       25.00       25.00       25.00    
        25.00       25.00       25.00       25.00       25.00       25.00       25.00       25.00       25.00       25.00    
  19    25.00       25.00       25.00       25.00       25.00       25.00       25.00       25.00       25.00       25.00    
        25.00       25.00       25.00       25.00       25.00       25.00       25.00       25.00       25.00       25.00    
        25.00       25.00       25.00       25.00       25.00       25.00       25.00       25.00       25.00       25.00    
        25.00       25.00       25.00       25.00       25.00       25.00       25.00       25.00       25.00       25.00    
  20    25.00       25.00       25.00       25.00       25.00       25.00       25.00       25.00       25.00       25.00    
        25.00       25.00       25.00       25.00       25.00       25.00       25.00       25.00       25.00       25.00    
        25.00       25.00       25.00       25.00       25.00       25.00       25.00       25.00       25.00       25.00    
        25.00       25.00       25.00       25.00       25.00       25.00       25.00       25.00       25.00       25.00    
  21    25.00       25.00       25.00       25.00       25.00       25.00       25.00       25.00       25.00       25.00    
        25.00       25.00       25.00       25.00       25.00       25.00       25.00       25.00       25.00       25.00    
        25.00       25.00       25.00       25.00       25.00       25.00       25.00       25.00       25.00       25.00    
        25.00       25.00       25.00       25.00       25.00       25.00       25.00       25.00       25.00       25.00    
  22    25.00       25.00       25.00       25.00       25.00       25.00       25.00       25.00       25.00       25.00    
        25.00       25.00       25.00       25.00       25.00       25.00       25.00       25.00       25.00       25.00    
        25.00       25.00       25.00       25.00       25.00       25.00       25.00       25.00       25.00       25.00    
        25.00       25.00       25.00       25.00       25.00       25.00       25.00       25.00       25.00       25.00    
  23    25.00       25.00       25.00       25.00       25.00       25.00       25.00       25.00       25.00       25.00    
        25.00       25.00       25.00       25.00       25.00       25.00       25.00       25.00       25.00       25.00    
        25.00       25.00       25.00       25.00       25.00       25.00       25.00       25.00       25.00       25.00    
        25.00       25.00       25.00       25.00       25.00       25.00       25.00       25.00       25.00       25.00    
  24    25.00       25.00       25.00       25.00       25.00       25.00       25.00       25.00       25.00       25.00    
        25.00       25.00       25.00       25.00       25.00       25.00       25.00       25.00       25.00       25.00    
        25.00       25.00       25.00       25.00       25.00       25.00       25.00       25.00       25.00       25.00    
        25.00       25.00       25.00       25.00       25.00       25.00       25.00       25.00       25.00       25.00    
  25    25.00       25.00       25.00       25.00       25.00       25.00       25.00       25.00       25.00       25.00    
        25.00       25.00       25.00       25.00       25.00       25.00       25.00       25.00       25.00       25.00    
        25.00       25.00       25.00       25.00       25.00       25.00       25.00       25.00       25.00       25.00    
        25.00       25.00       25.00       25.00       25.00       25.00       25.00       25.00       25.00       25.00    
  26    25.00       25.00       25.00       25.00       25.00       25.00       25.00       25.00       25.00       25.00    
        25.00       25.00       25.00       25.00       25.00       25.00       25.00       25.00       25.00       25.00    
        25.00       25.00       25.00       25.00       25.00       25.00       25.00       25.00       25.00       25.00    
        25.00       25.00       25.00       25.00       25.00       25.00       25.00       25.00       25.00       25.00    
  27    25.00       25.00       25.00       25.00       25.00       25.00       25.00       25.00       25.00       25.00    
        25.00       25.00       25.00       25.00       25.00       25.00       25.00       25.00       25.00       25.00    
        25.00       25.00       25.00       25.00       25.00       25.00       25.00       25.00       25.00       25.00    
        25.00       25.00       25.00       25.00       25.00       25.00       25.00       25.00       25.00       25.00    
  28    25.00       25.00       25.00       25.00       25.00       25.00       25.00       25.00       25.00       25.00    
        25.00       25.00       25.00       25.00       25.00       25.00       25.00       25.00       25.00       25.00    
        25.00       25.00       25.00       25.00       25.00       25.00       25.00       25.00       25.00       25.00    
        25.00       25.00       25.00       25.00       25.00       25.00       25.00       25.00       25.00       25.00    
  29    25.00       25.00       25.00       25.00       25.00       25.00       25.00       25.00       25.00       25.00    
        25.00       25.00       25.00       25.00       25.00       25.00       25.00       25.00       25.00       25.00    
        25.00       25.00       25.00       25.00       25.00       25.00       25.00       25.00       25.00       25.00    
        25.00       25.00       25.00       25.00       25.00       25.00       25.00       25.00       25.00       25.00    
  30    25.00       25.00       25.00       25.00       25.00       25.00       25.00       25.00       25.00       25.00    
        25.00       25.00       25.00       25.00       25.00       25.00       25.00       25.00       25.00       25.00    
        25.00       25.00       25.00       25.00       25.00       25.00       25.00       25.00       25.00       25.00    
        25.00       25.00       25.00       25.00       25.00       25.00       25.00       25.00       25.00       25.00    
  31    25.00       25.00       25.00       25.00       25.00       25.00       25.00       25.00       25.00       25.00    
        25.00       25.00       25.00       25.00       25.00       25.00       25.00       25.00       25.00       25.00    
        25.00       25.00       25.00       25.00       25.00       25.00       25.00       25.00       25.00       25.00    
        25.00       25.00       25.00       25.00       25.00       25.00       25.00       25.00       25.00       25.00    
  32    25.00       25.00       25.00       25.00       25.00       25.00       25.00       25.00       25.00       25.00    
        25.00       25.00       25.00       25.00       25.00       25.00       25.00       25.00       25.00       25.00    
        25.00       25.00       25.00       25.00       25.00       25.00       25.00       25.00       25.00       25.00    
        25.00       25.00       25.00       25.00       25.00       25.00       25.00       25.00       25.00       25.00    
  33    25.00       25.00       25.00       25.00       25.00       25.00       25.00       25.00       25.00       25.00    
        25.00       25.00       25.00       25.00       25.00       25.00       25.00       25.00       25.00       25.00    
        25.00       25.00       25.00       25.00       25.00       25.00       25.00       25.00       25.00       25.00    
        25.00       25.00       25.00       25.00       25.00       25.00       25.00       25.00       25.00       25.00    
  34    25.00       25.00       25.00       25.00       25.00       25.00       25.00       25.00       25.00       25.00    
        25.00       25.00       25.00       25.00       25.00       25.00       25.00       25.00       25.00       25.00    
        25.00       25.00       25.00       25.00       25.00       25.00       25.00       25.00       25.00       25.00    
        25.00       25.00       25.00       25.00       25.00       25.00       25.00       25.00       25.00       25.00    
  35    25.00       25.00       25.00       25.00       25.00       25.00       25.00       25.00       25.00       25.00    
        25.00       25.00       25.00       25.00       25.00       25.00       25.00       25.00       25.00       25.00    
        25.00       25.00       25.00       25.00       25.00       25.00       25.00       25.00       25.00       25.00    
        25.00       25.00       25.00       25.00       25.00       25.00       25.00       25.00       25.00       25.00    
  36    25.00       25.00       25.00       25.00       25.00       25.00       25.00       25.00       25.00       25.00    
        25.00       25.00       25.00       25.00       25.00       25.00       25.00       25.00       25.00       25.00    
        25.00       25.00       25.00       25.00       25.00       25.00       25.00       25.00       25.00       25.00    
        25.00       25.00       25.00       25.00       25.00       25.00       25.00       25.00       25.00       25.00    
  37    25.00       25.00       25.00       25.00       25.00       25.00       25.00       25.00       25.00       25.00    
        25.00       25.00       25.00       25.00       25.00       25.00       25.00       25.00       25.00       25.00    
        25.00       25.00       25.00       25.00       25.00       25.00       25.00       25.00       25.00       25.00    
        25.00       25.00       25.00       25.00       25.00       25.00       25.00       25.00       25.00       25.00    
  38    25.00       25.00       25.00       25.00       25.00       25.00       25.00       25.00       25.00       25.00    
        25.00       25.00       25.00       25.00       25.00       25.00       25.00       25.00       25.00       25.00    
        25.00       25.00       25.00       25.00       25.00       25.00       25.00       25.00       25.00       25.00    
        25.00       25.00       25.00       25.00       25.00       25.00       25.00       25.00       25.00       25.00    
  39    25.00       25.00       25.00       25.00       25.00       25.00       25.00       25.00       25.00       25.00    
        25.00       25.00       25.00       25.00       25.00       25.00       25.00       25.00       25.00       25.00    
        25.00       25.00       25.00       25.00       25.00       25.00       25.00       25.00       25.00       25.00    
        25.00       25.00       25.00       25.00       25.00       25.00       25.00       25.00       25.00       25.00    
  40    25.00       25.00       25.00       25.00       25.00       25.00       25.00       25.00       25.00       25.00    
        25.00       25.00       25.00       25.00       25.00       25.00       25.00       25.00       25.00       25.00    
        25.00       25.00       25.00       25.00       25.00       25.00       25.00       25.00       25.00       25.00    
        25.00       25.00       25.00       25.00       25.00       25.00       25.00       25.00       25.00       25.00    
1
              HEAD IN LAYER  12 AT END OF TIME STEP   1 IN STRESS PERIOD    1
  ---------------------------------------------------------------------------

            1           2           3           4           5           6           7           8           9          10
           11          12          13          14          15          16          17          18          19          20
           21          22          23          24          25          26          27          28          29          30
           31          32          33          34          35          36          37          38          39          40
 ........................................................................................................................
   1    28.28       27.71       26.05       25.38       25.14       25.05       25.02       25.01       25.00       25.00    
        25.00       25.00       25.00       25.00       25.00       25.00       25.00       25.00       25.00       25.00    
        25.00       25.00       25.00       25.00       25.00       25.00       25.00       25.00       25.00       25.00    
        25.00       25.00       25.00       25.00       25.00       25.00       25.00       25.00       25.00       25.00    
   2    27.71       27.26       25.85       25.31       25.12       25.04       25.02       25.01       25.00       25.00    
        25.00       25.00       25.00       25.00       25.00       25.00       25.00       25.00       25.00       25.00    
        25.00       25.00       25.00       25.00       25.00       25.00       25.00       25.00       25.00       25.00    
        25.00       25.00       25.00       25.00       25.00       25.00       25.00       25.00       25.00       25.00    
   3    26.05       25.85       25.42       25.18       25.08       25.03       25.01       25.00       25.00       25.00    
        25.00       25.00       25.00       25.00       25.00       25.00       25.00       25.00       25.00       25.00    
        25.00       25.00       25.00       25.00       25.00       25.00       25.00       25.00       25.00       25.00    
        25.00       25.00       25.00       25.00       25.00       25.00       25.00       25.00       25.00       25.00    
   4    25.38       25.31       25.18       25.09       25.04       25.02       25.01       25.00       25.00       25.00    
        25.00       25.00       25.00       25.00       25.00       25.00       25.00       25.00       25.00       25.00    
        25.00       25.00       25.00       25.00       25.00       25.00       25.00       25.00       25.00       25.00    
        25.00       25.00       25.00       25.00       25.00       25.00       25.00       25.00       25.00       25.00    
   5    25.14       25.12       25.08       25.04       25.02       25.01       25.00       25.00       25.00       25.00    
        25.00       25.00       25.00       25.00       25.00       25.00       25.00       25.00       25.00       25.00    
        25.00       25.00       25.00       25.00       25.00       25.00       25.00       25.00       25.00       25.00    
        25.00       25.00       25.00       25.00       25.00       25.00       25.00       25.00       25.00       25.00    
   6    25.05       25.04       25.03       25.02       25.01       25.00       25.00       25.00       25.00       25.00    
        25.00       25.00       25.00       25.00       25.00       25.00       25.00       25.00       25.00       25.00    
        25.00       25.00       25.00       25.00       25.00       25.00       25.00       25.00       25.00       25.00    
        25.00       25.00       25.00       25.00       25.00       25.00       25.00       25.00       25.00       25.00    
   7    25.02       25.02       25.01       25.01       25.00       25.00       25.00       25.00       25.00       25.00    
        25.00       25.00       25.00       25.00       25.00       25.00       25.00       25.00       25.00       25.00    
        25.00       25.00       25.00       25.00       25.00       25.00       25.00       25.00       25.00       25.00    
        25.00       25.00       25.00       25.00       25.00       25.00       25.00       25.00       25.00       25.00    
   8    25.01       25.01       25.00       25.00       25.00       25.00       25.00       25.00       25.00       25.00    
        25.00       25.00       25.00       25.00       25.00       25.00       25.00       25.00       25.00       25.00    
        25.00       25.00       25.00       25.00       25.00       25.00       25.00       25.00       25.00       25.00    
        25.00       25.00       25.00       25.00       25.00       25.00       25.00       25.00       25.00       25.00    
   9    25.00       25.00       25.00       25.00       25.00       25.00       25.00       25.00       25.00       25.00    
        25.00       25.00       25.00       25.00       25.00       25.00       25.00       25.00       25.00       25.00    
        25.00       25.00       25.00       25.00       25.00       25.00       25.00       25.00       25.00       25.00    
        25.00       25.00       25.00       25.00       25.00       25.00       25.00       25.00       25.00       25.00    
  10    25.00       25.00       25.00       25.00       25.00       25.00       25.00       25.00       25.00       25.00    
        25.00       25.00       25.00       25.00       25.00       25.00       25.00       25.00       25.00       25.00    
        25.00       25.00       25.00       25.00       25.00       25.00       25.00       25.00       25.00       25.00    
        25.00       25.00       25.00       25.00       25.00       25.00       25.00       25.00       25.00       25.00    
  11    25.00       25.00       25.00       25.00       25.00       25.00       25.00       25.00       25.00       25.00    
        25.00       25.00       25.00       25.00       25.00       25.00       25.00       25.00       25.00       25.00    
        25.00       25.00       25.00       25.00       25.00       25.00       25.00       25.00       25.00       25.00    
        25.00       25.00       25.00       25.00       25.00       25.00       25.00       25.00       25.00       25.00    
  12    25.00       25.00       25.00       25.00       25.00       25.00       25.00       25.00       25.00       25.00    
        25.00       25.00       25.00       25.00       25.00       25.00       25.00       25.00       25.00       25.00    
        25.00       25.00       25.00       25.00       25.00       25.00       25.00       25.00       25.00       25.00    
        25.00       25.00       25.00       25.00       25.00       25.00       25.00       25.00       25.00       25.00    
  13    25.00       25.00       25.00       25.00       25.00       25.00       25.00       25.00       25.00       25.00    
        25.00       25.00       25.00       25.00       25.00       25.00       25.00       25.00       25.00       25.00    
        25.00       25.00       25.00       25.00       25.00       25.00       25.00       25.00       25.00       25.00    
        25.00       25.00       25.00       25.00       25.00       25.00       25.00       25.00       25.00       25.00    
  14    25.00       25.00       25.00       25.00       25.00       25.00       25.00       25.00       25.00       25.00    
        25.00       25.00       25.00       25.00       25.00       25.00       25.00       25.00       25.00       25.00    
        25.00       25.00       25.00       25.00       25.00       25.00       25.00       25.00       25.00       25.00    
        25.00       25.00       25.00       25.00       25.00       25.00       25.00       25.00       25.00       25.00    
  15    25.00       25.00       25.00       25.00       25.00       25.00       25.00       25.00       25.00       25.00    
        25.00       25.00       25.00       25.00       25.00       25.00       25.00       25.00       25.00       25.00    
        25.00       25.00       25.00       25.00       25.00       25.00       25.00       25.00       25.00       25.00    
        25.00       25.00       25.00       25.00       25.00       25.00       25.00       25.00       25.00       25.00    
  16    25.00       25.00       25.00       25.00       25.00       25.00       25.00       25.00       25.00       25.00    
        25.00       25.00       25.00       25.00       25.00       25.00       25.00       25.00       25.00       25.00    
        25.00       25.00       25.00       25.00       25.00       25.00       25.00       25.00       25.00       25.00    
        25.00       25.00       25.00       25.00       25.00       25.00       25.00       25.00       25.00       25.00    
  17    25.00       25.00       25.00       25.00       25.00       25.00       25.00       25.00       25.00       25.00    
        25.00       25.00       25.00       25.00       25.00       25.00       25.00       25.00       25.00       25.00    
        25.00       25.00       25.00       25.00       25.00       25.00       25.00       25.00       25.00       25.00    
        25.00       25.00       25.00       25.00       25.00       25.00       25.00       25.00       25.00       25.00    
  18    25.00       25.00       25.00       25.00       25.00       25.00       25.00       25.00       25.00       25.00    
        25.00       25.00       25.00       25.00       25.00       25.00       25.00       25.00       25.00       25.00    
        25.00       25.00       25.00       25.00       25.00       25.00       25.00       25.00       25.00       25.00    
        25.00       25.00       25.00       25.00       25.00       25.00       25.00       25.00       25.00       25.00    
  19    25.00       25.00       25.00       25.00       25.00       25.00       25.00       25.00       25.00       25.00    
        25.00       25.00       25.00       25.00       25.00       25.00       25.00       25.00       25.00       25.00    
        25.00       25.00       25.00       25.00       25.00       25.00       25.00       25.00       25.00       25.00    
        25.00       25.00       25.00       25.00       25.00       25.00       25.00       25.00       25.00       25.00    
  20    25.00       25.00       25.00       25.00       25.00       25.00       25.00       25.00       25.00       25.00    
        25.00       25.00       25.00       25.00       25.00       25.00       25.00       25.00       25.00       25.00    
        25.00       25.00       25.00       25.00       25.00       25.00       25.00       25.00       25.00       25.00    
        25.00       25.00       25.00       25.00       25.00       25.00       25.00       25.00       25.00       25.00    
  21    25.00       25.00       25.00       25.00       25.00       25.00       25.00       25.00       25.00       25.00    
        25.00       25.00       25.00       25.00       25.00       25.00       25.00       25.00       25.00       25.00    
        25.00       25.00       25.00       25.00       25.00       25.00       25.00       25.00       25.00       25.00    
        25.00       25.00       25.00       25.00       25.00       25.00       25.00       25.00       25.00       25.00    
  22    25.00       25.00       25.00       25.00       25.00       25.00       25.00       25.00       25.00       25.00    
        25.00       25.00       25.00       25.00       25.00       25.00       25.00       25.00       25.00       25.00    
        25.00       25.00       25.00       25.00       25.00       25.00       25.00       25.00       25.00       25.00    
        25.00       25.00       25.00       25.00       25.00       25.00       25.00       25.00       25.00       25.00    
  23    25.00       25.00       25.00       25.00       25.00       25.00       25.00       25.00       25.00       25.00    
        25.00       25.00       25.00       25.00       25.00       25.00       25.00       25.00       25.00       25.00    
        25.00       25.00       25.00       25.00       25.00       25.00       25.00       25.00       25.00       25.00    
        25.00       25.00       25.00       25.00       25.00       25.00       25.00       25.00       25.00       25.00    
  24    25.00       25.00       25.00       25.00       25.00       25.00       25.00       25.00       25.00       25.00    
        25.00       25.00       25.00       25.00       25.00       25.00       25.00       25.00       25.00       25.00    
        25.00       25.00       25.00       25.00       25.00       25.00       25.00       25.00       25.00       25.00    
        25.00       25.00       25.00       25.00       25.00       25.00       25.00       25.00       25.00       25.00    
  25    25.00       25.00       25.00       25.00       25.00       25.00       25.00       25.00       25.00       25.00    
        25.00       25.00       25.00       25.00       25.00       25.00       25.00       25.00       25.00       25.00    
        25.00       25.00       25.00       25.00       25.00       25.00       25.00       25.00       25.00       25.00    
        25.00       25.00       25.00       25.00       25.00       25.00       25.00       25.00       25.00       25.00    
  26    25.00       25.00       25.00       25.00       25.00       25.00       25.00       25.00       25.00       25.00    
        25.00       25.00       25.00       25.00       25.00       25.00       25.00       25.00       25.00       25.00    
        25.00       25.00       25.00       25.00       25.00       25.00       25.00       25.00       25.00       25.00    
        25.00       25.00       25.00       25.00       25.00       25.00       25.00       25.00       25.00       25.00    
  27    25.00       25.00       25.00       25.00       25.00       25.00       25.00       25.00       25.00       25.00    
        25.00       25.00       25.00       25.00       25.00       25.00       25.00       25.00       25.00       25.00    
        25.00       25.00       25.00       25.00       25.00       25.00       25.00       25.00       25.00       25.00    
        25.00       25.00       25.00       25.00       25.00       25.00       25.00       25.00       25.00       25.00    
  28    25.00       25.00       25.00       25.00       25.00       25.00       25.00       25.00       25.00       25.00    
        25.00       25.00       25.00       25.00       25.00       25.00       25.00       25.00       25.00       25.00    
        25.00       25.00       25.00       25.00       25.00       25.00       25.00       25.00       25.00       25.00    
        25.00       25.00       25.00       25.00       25.00       25.00       25.00       25.00       25.00       25.00    
  29    25.00       25.00       25.00       25.00       25.00       25.00       25.00       25.00       25.00       25.00    
        25.00       25.00       25.00       25.00       25.00       25.00       25.00       25.00       25.00       25.00    
        25.00       25.00       25.00       25.00       25.00       25.00       25.00       25.00       25.00       25.00    
        25.00       25.00       25.00       25.00       25.00       25.00       25.00       25.00       25.00       25.00    
  30    25.00       25.00       25.00       25.00       25.00       25.00       25.00       25.00       25.00       25.00    
        25.00       25.00       25.00       25.00       25.00       25.00       25.00       25.00       25.00       25.00    
        25.00       25.00       25.00       25.00       25.00       25.00       25.00       25.00       25.00       25.00    
        25.00       25.00       25.00       25.00       25.00       25.00       25.00       25.00       25.00       25.00    
  31    25.00       25.00       25.00       25.00       25.00       25.00       25.00       25.00       25.00       25.00    
        25.00       25.00       25.00       25.00       25.00       25.00       25.00       25.00       25.00       25.00    
        25.00       25.00       25.00       25.00       25.00       25.00       25.00       25.00       25.00       25.00    
        25.00       25.00       25.00       25.00       25.00       25.00       25.00       25.00       25.00       25.00    
  32    25.00       25.00       25.00       25.00       25.00       25.00       25.00       25.00       25.00       25.00    
        25.00       25.00       25.00       25.00       25.00       25.00       25.00       25.00       25.00       25.00    
        25.00       25.00       25.00       25.00       25.00       25.00       25.00       25.00       25.00       25.00    
        25.00       25.00       25.00       25.00       25.00       25.00       25.00       25.00       25.00       25.00    
  33    25.00       25.00       25.00       25.00       25.00       25.00       25.00       25.00       25.00       25.00    
        25.00       25.00       25.00       25.00       25.00       25.00       25.00       25.00       25.00       25.00    
        25.00       25.00       25.00       25.00       25.00       25.00       25.00       25.00       25.00       25.00    
        25.00       25.00       25.00       25.00       25.00       25.00       25.00       25.00       25.00       25.00    
  34    25.00       25.00       25.00       25.00       25.00       25.00       25.00       25.00       25.00       25.00    
        25.00       25.00       25.00       25.00       25.00       25.00       25.00       25.00       25.00       25.00    
        25.00       25.00       25.00       25.00       25.00       25.00       25.00       25.00       25.00       25.00    
        25.00       25.00       25.00       25.00       25.00       25.00       25.00       25.00       25.00       25.00    
  35    25.00       25.00       25.00       25.00       25.00       25.00       25.00       25.00       25.00       25.00    
        25.00       25.00       25.00       25.00       25.00       25.00       25.00       25.00       25.00       25.00    
        25.00       25.00       25.00       25.00       25.00       25.00       25.00       25.00       25.00       25.00    
        25.00       25.00       25.00       25.00       25.00       25.00       25.00       25.00       25.00       25.00    
  36    25.00       25.00       25.00       25.00       25.00       25.00       25.00       25.00       25.00       25.00    
        25.00       25.00       25.00       25.00       25.00       25.00       25.00       25.00       25.00       25.00    
        25.00       25.00       25.00       25.00       25.00       25.00       25.00       25.00       25.00       25.00    
        25.00       25.00       25.00       25.00       25.00       25.00       25.00       25.00       25.00       25.00    
  37    25.00       25.00       25.00       25.00       25.00       25.00       25.00       25.00       25.00       25.00    
        25.00       25.00       25.00       25.00       25.00       25.00       25.00       25.00       25.00       25.00    
        25.00       25.00       25.00       25.00       25.00       25.00       25.00       25.00       25.00       25.00    
        25.00       25.00       25.00       25.00       25.00       25.00       25.00       25.00       25.00       25.00    
  38    25.00       25.00       25.00       25.00       25.00       25.00       25.00       25.00       25.00       25.00    
        25.00       25.00       25.00       25.00       25.00       25.00       25.00       25.00       25.00       25.00    
        25.00       25.00       25.00       25.00       25.00       25.00       25.00       25.00       25.00       25.00    
        25.00       25.00       25.00       25.00       25.00       25.00       25.00       25.00       25.00       25.00    
  39    25.00       25.00       25.00       25.00       25.00       25.00       25.00       25.00       25.00       25.00    
        25.00       25.00       25.00       25.00       25.00       25.00       25.00       25.00       25.00       25.00    
        25.00       25.00       25.00       25.00       25.00       25.00       25.00       25.00       25.00       25.00    
        25.00       25.00       25.00       25.00       25.00       25.00       25.00       25.00       25.00       25.00    
  40    25.00       25.00       25.00       25.00       25.00       25.00       25.00       25.00       25.00       25.00    
        25.00       25.00       25.00       25.00       25.00       25.00       25.00       25.00       25.00       25.00    
        25.00       25.00       25.00       25.00       25.00       25.00       25.00       25.00       25.00       25.00    
        25.00       25.00       25.00       25.00       25.00       25.00       25.00       25.00       25.00       25.00    
1
              HEAD IN LAYER  13 AT END OF TIME STEP   1 IN STRESS PERIOD    1
  ---------------------------------------------------------------------------

            1           2           3           4           5           6           7           8           9          10
           11          12          13          14          15          16          17          18          19          20
           21          22          23          24          25          26          27          28          29          30
           31          32          33          34          35          36          37          38          39          40
 ........................................................................................................................
   1    28.20       27.62       26.08       25.40       25.15       25.06       25.02       25.01       25.00       25.00    
        25.00       25.00       25.00       25.00       25.00       25.00       25.00       25.00       25.00       25.00    
        25.00       25.00       25.00       25.00       25.00       25.00       25.00       25.00       25.00       25.00    
        25.00       25.00       25.00       25.00       25.00       25.00       25.00       25.00       25.00       25.00    
   2    27.62       27.15       25.88       25.33       25.12       25.05       25.02       25.01       25.00       25.00    
        25.00       25.00       25.00       25.00       25.00       25.00       25.00       25.00       25.00       25.00    
        25.00       25.00       25.00       25.00       25.00       25.00       25.00       25.00       25.00       25.00    
        25.00       25.00       25.00       25.00       25.00       25.00       25.00       25.00       25.00       25.00    
   3    26.08       25.88       25.44       25.19       25.08       25.03       25.01       25.01       25.00       25.00    
        25.00       25.00       25.00       25.00       25.00       25.00       25.00       25.00       25.00       25.00    
        25.00       25.00       25.00       25.00       25.00       25.00       25.00       25.00       25.00       25.00    
        25.00       25.00       25.00       25.00       25.00       25.00       25.00       25.00       25.00       25.00    
   4    25.40       25.33       25.19       25.10       25.04       25.02       25.01       25.00       25.00       25.00    
        25.00       25.00       25.00       25.00       25.00       25.00       25.00       25.00       25.00       25.00    
        25.00       25.00       25.00       25.00       25.00       25.00       25.00       25.00       25.00       25.00    
        25.00       25.00       25.00       25.00       25.00       25.00       25.00       25.00       25.00       25.00    
   5    25.15       25.12       25.08       25.04       25.02       25.01       25.00       25.00       25.00       25.00    
        25.00       25.00       25.00       25.00       25.00       25.00       25.00       25.00       25.00       25.00    
        25.00       25.00       25.00       25.00       25.00       25.00       25.00       25.00       25.00       25.00    
        25.00       25.00       25.00       25.00       25.00       25.00       25.00       25.00       25.00       25.00    
   6    25.06       25.05       25.03       25.02       25.01       25.01       25.00       25.00       25.00       25.00    
        25.00       25.00       25.00       25.00       25.00       25.00       25.00       25.00       25.00       25.00    
        25.00       25.00       25.00       25.00       25.00       25.00       25.00       25.00       25.00       25.00    
        25.00       25.00       25.00       25.00       25.00       25.00       25.00       25.00       25.00       25.00    
   7    25.02       25.02       25.01       25.01       25.00       25.00       25.00       25.00       25.00       25.00    
        25.00       25.00       25.00       25.00       25.00       25.00       25.00       25.00       25.00       25.00    
        25.00       25.00       25.00       25.00       25.00       25.00       25.00       25.00       25.00       25.00    
        25.00       25.00       25.00       25.00       25.00       25.00       25.00       25.00       25.00       25.00    
   8    25.01       25.01       25.01       25.00       25.00       25.00       25.00       25.00       25.00       25.00    
        25.00       25.00       25.00       25.00       25.00       25.00       25.00       25.00       25.00       25.00    
        25.00       25.00       25.00       25.00       25.00       25.00       25.00       25.00       25.00       25.00    
        25.00       25.00       25.00       25.00       25.00       25.00       25.00       25.00       25.00       25.00    
   9    25.00       25.00       25.00       25.00       25.00       25.00       25.00       25.00       25.00       25.00    
        25.00       25.00       25.00       25.00       25.00       25.00       25.00       25.00       25.00       25.00    
        25.00       25.00       25.00       25.00       25.00       25.00       25.00       25.00       25.00       25.00    
        25.00       25.00       25.00       25.00       25.00       25.00       25.00       25.00       25.00       25.00    
  10    25.00       25.00       25.00       25.00       25.00       25.00       25.00       25.00       25.00       25.00    
        25.00       25.00       25.00       25.00       25.00       25.00       25.00       25.00       25.00       25.00    
        25.00       25.00       25.00       25.00       25.00       25.00       25.00       25.00       25.00       25.00    
        25.00       25.00       25.00       25.00       25.00       25.00       25.00       25.00       25.00       25.00    
  11    25.00       25.00       25.00       25.00       25.00       25.00       25.00       25.00       25.00       25.00    
        25.00       25.00       25.00       25.00       25.00       25.00       25.00       25.00       25.00       25.00    
        25.00       25.00       25.00       25.00       25.00       25.00       25.00       25.00       25.00       25.00    
        25.00       25.00       25.00       25.00       25.00       25.00       25.00       25.00       25.00       25.00    
  12    25.00       25.00       25.00       25.00       25.00       25.00       25.00       25.00       25.00       25.00    
        25.00       25.00       25.00       25.00       25.00       25.00       25.00       25.00       25.00       25.00    
        25.00       25.00       25.00       25.00       25.00       25.00       25.00       25.00       25.00       25.00    
        25.00       25.00       25.00       25.00       25.00       25.00       25.00       25.00       25.00       25.00    
  13    25.00       25.00       25.00       25.00       25.00       25.00       25.00       25.00       25.00       25.00    
        25.00       25.00       25.00       25.00       25.00       25.00       25.00       25.00       25.00       25.00    
        25.00       25.00       25.00       25.00       25.00       25.00       25.00       25.00       25.00       25.00    
        25.00       25.00       25.00       25.00       25.00       25.00       25.00       25.00       25.00       25.00    
  14    25.00       25.00       25.00       25.00       25.00       25.00       25.00       25.00       25.00       25.00    
        25.00       25.00       25.00       25.00       25.00       25.00       25.00       25.00       25.00       25.00    
        25.00       25.00       25.00       25.00       25.00       25.00       25.00       25.00       25.00       25.00    
        25.00       25.00       25.00       25.00       25.00       25.00       25.00       25.00       25.00       25.00    
  15    25.00       25.00       25.00       25.00       25.00       25.00       25.00       25.00       25.00       25.00    
        25.00       25.00       25.00       25.00       25.00       25.00       25.00       25.00       25.00       25.00    
        25.00       25.00       25.00       25.00       25.00       25.00       25.00       25.00       25.00       25.00    
        25.00       25.00       25.00       25.00       25.00       25.00       25.00       25.00       25.00       25.00    
  16    25.00       25.00       25.00       25.00       25.00       25.00       25.00       25.00       25.00       25.00    
        25.00       25.00       25.00       25.00       25.00       25.00       25.00       25.00       25.00       25.00    
        25.00       25.00       25.00       25.00       25.00       25.00       25.00       25.00       25.00       25.00    
        25.00       25.00       25.00       25.00       25.00       25.00       25.00       25.00       25.00       25.00    
  17    25.00       25.00       25.00       25.00       25.00       25.00       25.00       25.00       25.00       25.00    
        25.00       25.00       25.00       25.00       25.00       25.00       25.00       25.00       25.00       25.00    
        25.00       25.00       25.00       25.00       25.00       25.00       25.00       25.00       25.00       25.00    
        25.00       25.00       25.00       25.00       25.00       25.00       25.00       25.00       25.00       25.00    
  18    25.00       25.00       25.00       25.00       25.00       25.00       25.00       25.00       25.00       25.00    
        25.00       25.00       25.00       25.00       25.00       25.00       25.00       25.00       25.00       25.00    
        25.00       25.00       25.00       25.00       25.00       25.00       25.00       25.00       25.00       25.00    
        25.00       25.00       25.00       25.00       25.00       25.00       25.00       25.00       25.00       25.00    
  19    25.00       25.00       25.00       25.00       25.00       25.00       25.00       25.00       25.00       25.00    
        25.00       25.00       25.00       25.00       25.00       25.00       25.00       25.00       25.00       25.00    
        25.00       25.00       25.00       25.00       25.00       25.00       25.00       25.00       25.00       25.00    
        25.00       25.00       25.00       25.00       25.00       25.00       25.00       25.00       25.00       25.00    
  20    25.00       25.00       25.00       25.00       25.00       25.00       25.00       25.00       25.00       25.00    
        25.00       25.00       25.00       25.00       25.00       25.00       25.00       25.00       25.00       25.00    
        25.00       25.00       25.00       25.00       25.00       25.00       25.00       25.00       25.00       25.00    
        25.00       25.00       25.00       25.00       25.00       25.00       25.00       25.00       25.00       25.00    
  21    25.00       25.00       25.00       25.00       25.00       25.00       25.00       25.00       25.00       25.00    
        25.00       25.00       25.00       25.00       25.00       25.00       25.00       25.00       25.00       25.00    
        25.00       25.00       25.00       25.00       25.00       25.00       25.00       25.00       25.00       25.00    
        25.00       25.00       25.00       25.00       25.00       25.00       25.00       25.00       25.00       25.00    
  22    25.00       25.00       25.00       25.00       25.00       25.00       25.00       25.00       25.00       25.00    
        25.00       25.00       25.00       25.00       25.00       25.00       25.00       25.00       25.00       25.00    
        25.00       25.00       25.00       25.00       25.00       25.00       25.00       25.00       25.00       25.00    
        25.00       25.00       25.00       25.00       25.00       25.00       25.00       25.00       25.00       25.00    
  23    25.00       25.00       25.00       25.00       25.00       25.00       25.00       25.00       25.00       25.00    
        25.00       25.00       25.00       25.00       25.00       25.00       25.00       25.00       25.00       25.00    
        25.00       25.00       25.00       25.00       25.00       25.00       25.00       25.00       25.00       25.00    
        25.00       25.00       25.00       25.00       25.00       25.00       25.00       25.00       25.00       25.00    
  24    25.00       25.00       25.00       25.00       25.00       25.00       25.00       25.00       25.00       25.00    
        25.00       25.00       25.00       25.00       25.00       25.00       25.00       25.00       25.00       25.00    
        25.00       25.00       25.00       25.00       25.00       25.00       25.00       25.00       25.00       25.00    
        25.00       25.00       25.00       25.00       25.00       25.00       25.00       25.00       25.00       25.00    
  25    25.00       25.00       25.00       25.00       25.00       25.00       25.00       25.00       25.00       25.00    
        25.00       25.00       25.00       25.00       25.00       25.00       25.00       25.00       25.00       25.00    
        25.00       25.00       25.00       25.00       25.00       25.00       25.00       25.00       25.00       25.00    
        25.00       25.00       25.00       25.00       25.00       25.00       25.00       25.00       25.00       25.00    
  26    25.00       25.00       25.00       25.00       25.00       25.00       25.00       25.00       25.00       25.00    
        25.00       25.00       25.00       25.00       25.00       25.00       25.00       25.00       25.00       25.00    
        25.00       25.00       25.00       25.00       25.00       25.00       25.00       25.00       25.00       25.00    
        25.00       25.00       25.00       25.00       25.00       25.00       25.00       25.00       25.00       25.00    
  27    25.00       25.00       25.00       25.00       25.00       25.00       25.00       25.00       25.00       25.00    
        25.00       25.00       25.00       25.00       25.00       25.00       25.00       25.00       25.00       25.00    
        25.00       25.00       25.00       25.00       25.00       25.00       25.00       25.00       25.00       25.00    
        25.00       25.00       25.00       25.00       25.00       25.00       25.00       25.00       25.00       25.00    
  28    25.00       25.00       25.00       25.00       25.00       25.00       25.00       25.00       25.00       25.00    
        25.00       25.00       25.00       25.00       25.00       25.00       25.00       25.00       25.00       25.00    
        25.00       25.00       25.00       25.00       25.00       25.00       25.00       25.00       25.00       25.00    
        25.00       25.00       25.00       25.00       25.00       25.00       25.00       25.00       25.00       25.00    
  29    25.00       25.00       25.00       25.00       25.00       25.00       25.00       25.00       25.00       25.00    
        25.00       25.00       25.00       25.00       25.00       25.00       25.00       25.00       25.00       25.00    
        25.00       25.00       25.00       25.00       25.00       25.00       25.00       25.00       25.00       25.00    
        25.00       25.00       25.00       25.00       25.00       25.00       25.00       25.00       25.00       25.00    
  30    25.00       25.00       25.00       25.00       25.00       25.00       25.00       25.00       25.00       25.00    
        25.00       25.00       25.00       25.00       25.00       25.00       25.00       25.00       25.00       25.00    
        25.00       25.00       25.00       25.00       25.00       25.00       25.00       25.00       25.00       25.00    
        25.00       25.00       25.00       25.00       25.00       25.00       25.00       25.00       25.00       25.00    
  31    25.00       25.00       25.00       25.00       25.00       25.00       25.00       25.00       25.00       25.00    
        25.00       25.00       25.00       25.00       25.00       25.00       25.00       25.00       25.00       25.00    
        25.00       25.00       25.00       25.00       25.00       25.00       25.00       25.00       25.00       25.00    
        25.00       25.00       25.00       25.00       25.00       25.00       25.00       25.00       25.00       25.00    
  32    25.00       25.00       25.00       25.00       25.00       25.00       25.00       25.00       25.00       25.00    
        25.00       25.00       25.00       25.00       25.00       25.00       25.00       25.00       25.00       25.00    
        25.00       25.00       25.00       25.00       25.00       25.00       25.00       25.00       25.00       25.00    
        25.00       25.00       25.00       25.00       25.00       25.00       25.00       25.00       25.00       25.00    
  33    25.00       25.00       25.00       25.00       25.00       25.00       25.00       25.00       25.00       25.00    
        25.00       25.00       25.00       25.00       25.00       25.00       25.00       25.00       25.00       25.00    
        25.00       25.00       25.00       25.00       25.00       25.00       25.00       25.00       25.00       25.00    
        25.00       25.00       25.00       25.00       25.00       25.00       25.00       25.00       25.00       25.00    
  34    25.00       25.00       25.00       25.00       25.00       25.00       25.00       25.00       25.00       25.00    
        25.00       25.00       25.00       25.00       25.00       25.00       25.00       25.00       25.00       25.00    
        25.00       25.00       25.00       25.00       25.00       25.00       25.00       25.00       25.00       25.00    
        25.00       25.00       25.00       25.00       25.00       25.00       25.00       25.00       25.00       25.00    
  35    25.00       25.00       25.00       25.00       25.00       25.00       25.00       25.00       25.00       25.00    
        25.00       25.00       25.00       25.00       25.00       25.00       25.00       25.00       25.00       25.00    
        25.00       25.00       25.00       25.00       25.00       25.00       25.00       25.00       25.00       25.00    
        25.00       25.00       25.00       25.00       25.00       25.00       25.00       25.00       25.00       25.00    
  36    25.00       25.00       25.00       25.00       25.00       25.00       25.00       25.00       25.00       25.00    
        25.00       25.00       25.00       25.00       25.00       25.00       25.00       25.00       25.00       25.00    
        25.00       25.00       25.00       25.00       25.00       25.00       25.00       25.00       25.00       25.00    
        25.00       25.00       25.00       25.00       25.00       25.00       25.00       25.00       25.00       25.00    
  37    25.00       25.00       25.00       25.00       25.00       25.00       25.00       25.00       25.00       25.00    
        25.00       25.00       25.00       25.00       25.00       25.00       25.00       25.00       25.00       25.00    
        25.00       25.00       25.00       25.00       25.00       25.00       25.00       25.00       25.00       25.00    
        25.00       25.00       25.00       25.00       25.00       25.00       25.00       25.00       25.00       25.00    
  38    25.00       25.00       25.00       25.00       25.00       25.00       25.00       25.00       25.00       25.00    
        25.00       25.00       25.00       25.00       25.00       25.00       25.00       25.00       25.00       25.00    
        25.00       25.00       25.00       25.00       25.00       25.00       25.00       25.00       25.00       25.00    
        25.00       25.00       25.00       25.00       25.00       25.00       25.00       25.00       25.00       25.00    
  39    25.00       25.00       25.00       25.00       25.00       25.00       25.00       25.00       25.00       25.00    
        25.00       25.00       25.00       25.00       25.00       25.00       25.00       25.00       25.00       25.00    
        25.00       25.00       25.00       25.00       25.00       25.00       25.00       25.00       25.00       25.00    
        25.00       25.00       25.00       25.00       25.00       25.00       25.00       25.00       25.00       25.00    
  40    25.00       25.00       25.00       25.00       25.00       25.00       25.00       25.00       25.00       25.00    
        25.00       25.00       25.00       25.00       25.00       25.00       25.00       25.00       25.00       25.00    
        25.00       25.00       25.00       25.00       25.00       25.00       25.00       25.00       25.00       25.00    
        25.00       25.00       25.00       25.00       25.00       25.00       25.00       25.00       25.00       25.00    
1
              HEAD IN LAYER  14 AT END OF TIME STEP   1 IN STRESS PERIOD    1
  ---------------------------------------------------------------------------

            1           2           3           4           5           6           7           8           9          10
           11          12          13          14          15          16          17          18          19          20
           21          22          23          24          25          26          27          28          29          30
           31          32          33          34          35          36          37          38          39          40
 ........................................................................................................................
   1    28.15       27.57       26.10       25.42       25.15       25.06       25.02       25.01       25.00       25.00    
        25.00       25.00       25.00       25.00       25.00       25.00       25.00       25.00       25.00       25.00    
        25.00       25.00       25.00       25.00       25.00       25.00       25.00       25.00       25.00       25.00    
        25.00       25.00       25.00       25.00       25.00       25.00       25.00       25.00       25.00       25.00    
   2    27.57       27.10       25.89       25.34       25.13       25.05       25.02       25.01       25.00       25.00    
        25.00       25.00       25.00       25.00       25.00       25.00       25.00       25.00       25.00       25.00    
        25.00       25.00       25.00       25.00       25.00       25.00       25.00       25.00       25.00       25.00    
        25.00       25.00       25.00       25.00       25.00       25.00       25.00       25.00       25.00       25.00    
   3    26.10       25.89       25.45       25.20       25.08       25.03       25.01       25.01       25.00       25.00    
        25.00       25.00       25.00       25.00       25.00       25.00       25.00       25.00       25.00       25.00    
        25.00       25.00       25.00       25.00       25.00       25.00       25.00       25.00       25.00       25.00    
        25.00       25.00       25.00       25.00       25.00       25.00       25.00       25.00       25.00       25.00    
   4    25.42       25.34       25.20       25.10       25.05       25.02       25.01       25.00       25.00       25.00    
        25.00       25.00       25.00       25.00       25.00       25.00       25.00       25.00       25.00       25.00    
        25.00       25.00       25.00       25.00       25.00       25.00       25.00       25.00       25.00       25.00    
        25.00       25.00       25.00       25.00       25.00       25.00       25.00       25.00       25.00       25.00    
   5    25.15       25.13       25.08       25.05       25.02       25.01       25.00       25.00       25.00       25.00    
        25.00       25.00       25.00       25.00       25.00       25.00       25.00       25.00       25.00       25.00    
        25.00       25.00       25.00       25.00       25.00       25.00       25.00       25.00       25.00       25.00    
        25.00       25.00       25.00       25.00       25.00       25.00       25.00       25.00       25.00       25.00    
   6    25.06       25.05       25.03       25.02       25.01       25.01       25.00       25.00       25.00       25.00    
        25.00       25.00       25.00       25.00       25.00       25.00       25.00       25.00       25.00       25.00    
        25.00       25.00       25.00       25.00       25.00       25.00       25.00       25.00       25.00       25.00    
        25.00       25.00       25.00       25.00       25.00       25.00       25.00       25.00       25.00       25.00    
   7    25.02       25.02       25.01       25.01       25.00       25.00       25.00       25.00       25.00       25.00    
        25.00       25.00       25.00       25.00       25.00       25.00       25.00       25.00       25.00       25.00    
        25.00       25.00       25.00       25.00       25.00       25.00       25.00       25.00       25.00       25.00    
        25.00       25.00       25.00       25.00       25.00       25.00       25.00       25.00       25.00       25.00    
   8    25.01       25.01       25.01       25.00       25.00       25.00       25.00       25.00       25.00       25.00    
        25.00       25.00       25.00       25.00       25.00       25.00       25.00       25.00       25.00       25.00    
        25.00       25.00       25.00       25.00       25.00       25.00       25.00       25.00       25.00       25.00    
        25.00       25.00       25.00       25.00       25.00       25.00       25.00       25.00       25.00       25.00    
   9    25.00       25.00       25.00       25.00       25.00       25.00       25.00       25.00       25.00       25.00    
        25.00       25.00       25.00       25.00       25.00       25.00       25.00       25.00       25.00       25.00    
        25.00       25.00       25.00       25.00       25.00       25.00       25.00       25.00       25.00       25.00    
        25.00       25.00       25.00       25.00       25.00       25.00       25.00       25.00       25.00       25.00    
  10    25.00       25.00       25.00       25.00       25.00       25.00       25.00       25.00       25.00       25.00    
        25.00       25.00       25.00       25.00       25.00       25.00       25.00       25.00       25.00       25.00    
        25.00       25.00       25.00       25.00       25.00       25.00       25.00       25.00       25.00       25.00    
        25.00       25.00       25.00       25.00       25.00       25.00       25.00       25.00       25.00       25.00    
  11    25.00       25.00       25.00       25.00       25.00       25.00       25.00       25.00       25.00       25.00    
        25.00       25.00       25.00       25.00       25.00       25.00       25.00       25.00       25.00       25.00    
        25.00       25.00       25.00       25.00       25.00       25.00       25.00       25.00       25.00       25.00    
        25.00       25.00       25.00       25.00       25.00       25.00       25.00       25.00       25.00       25.00    
  12    25.00       25.00       25.00       25.00       25.00       25.00       25.00       25.00       25.00       25.00    
        25.00       25.00       25.00       25.00       25.00       25.00       25.00       25.00       25.00       25.00    
        25.00       25.00       25.00       25.00       25.00       25.00       25.00       25.00       25.00       25.00    
        25.00       25.00       25.00       25.00       25.00       25.00       25.00       25.00       25.00       25.00    
  13    25.00       25.00       25.00       25.00       25.00       25.00       25.00       25.00       25.00       25.00    
        25.00       25.00       25.00       25.00       25.00       25.00       25.00       25.00       25.00       25.00    
        25.00       25.00       25.00       25.00       25.00       25.00       25.00       25.00       25.00       25.00    
        25.00       25.00       25.00       25.00       25.00       25.00       25.00       25.00       25.00       25.00    
  14    25.00       25.00       25.00       25.00       25.00       25.00       25.00       25.00       25.00       25.00    
        25.00       25.00       25.00       25.00       25.00       25.00       25.00       25.00       25.00       25.00    
        25.00       25.00       25.00       25.00       25.00       25.00       25.00       25.00       25.00       25.00    
        25.00       25.00       25.00       25.00       25.00       25.00       25.00       25.00       25.00       25.00    
  15    25.00       25.00       25.00       25.00       25.00       25.00       25.00       25.00       25.00       25.00    
        25.00       25.00       25.00       25.00       25.00       25.00       25.00       25.00       25.00       25.00    
        25.00       25.00       25.00       25.00       25.00       25.00       25.00       25.00       25.00       25.00    
        25.00       25.00       25.00       25.00       25.00       25.00       25.00       25.00       25.00       25.00    
  16    25.00       25.00       25.00       25.00       25.00       25.00       25.00       25.00       25.00       25.00    
        25.00       25.00       25.00       25.00       25.00       25.00       25.00       25.00       25.00       25.00    
        25.00       25.00       25.00       25.00       25.00       25.00       25.00       25.00       25.00       25.00    
        25.00       25.00       25.00       25.00       25.00       25.00       25.00       25.00       25.00       25.00    
  17    25.00       25.00       25.00       25.00       25.00       25.00       25.00       25.00       25.00       25.00    
        25.00       25.00       25.00       25.00       25.00       25.00       25.00       25.00       25.00       25.00    
        25.00       25.00       25.00       25.00       25.00       25.00       25.00       25.00       25.00       25.00    
        25.00       25.00       25.00       25.00       25.00       25.00       25.00       25.00       25.00       25.00    
  18    25.00       25.00       25.00       25.00       25.00       25.00       25.00       25.00       25.00       25.00    
        25.00       25.00       25.00       25.00       25.00       25.00       25.00       25.00       25.00       25.00    
        25.00       25.00       25.00       25.00       25.00       25.00       25.00       25.00       25.00       25.00    
        25.00       25.00       25.00       25.00       25.00       25.00       25.00       25.00       25.00       25.00    
  19    25.00       25.00       25.00       25.00       25.00       25.00       25.00       25.00       25.00       25.00    
        25.00       25.00       25.00       25.00       25.00       25.00       25.00       25.00       25.00       25.00    
        25.00       25.00       25.00       25.00       25.00       25.00       25.00       25.00       25.00       25.00    
        25.00       25.00       25.00       25.00       25.00       25.00       25.00       25.00       25.00       25.00    
  20    25.00       25.00       25.00       25.00       25.00       25.00       25.00       25.00       25.00       25.00    
        25.00       25.00       25.00       25.00       25.00       25.00       25.00       25.00       25.00       25.00    
        25.00       25.00       25.00       25.00       25.00       25.00       25.00       25.00       25.00       25.00    
        25.00       25.00       25.00       25.00       25.00       25.00       25.00       25.00       25.00       25.00    
  21    25.00       25.00       25.00       25.00       25.00       25.00       25.00       25.00       25.00       25.00    
        25.00       25.00       25.00       25.00       25.00       25.00       25.00       25.00       25.00       25.00    
        25.00       25.00       25.00       25.00       25.00       25.00       25.00       25.00       25.00       25.00    
        25.00       25.00       25.00       25.00       25.00       25.00       25.00       25.00       25.00       25.00    
  22    25.00       25.00       25.00       25.00       25.00       25.00       25.00       25.00       25.00       25.00    
        25.00       25.00       25.00       25.00       25.00       25.00       25.00       25.00       25.00       25.00    
        25.00       25.00       25.00       25.00       25.00       25.00       25.00       25.00       25.00       25.00    
        25.00       25.00       25.00       25.00       25.00       25.00       25.00       25.00       25.00       25.00    
  23    25.00       25.00       25.00       25.00       25.00       25.00       25.00       25.00       25.00       25.00    
        25.00       25.00       25.00       25.00       25.00       25.00       25.00       25.00       25.00       25.00    
        25.00       25.00       25.00       25.00       25.00       25.00       25.00       25.00       25.00       25.00    
        25.00       25.00       25.00       25.00       25.00       25.00       25.00       25.00       25.00       25.00    
  24    25.00       25.00       25.00       25.00       25.00       25.00       25.00       25.00       25.00       25.00    
        25.00       25.00       25.00       25.00       25.00       25.00       25.00       25.00       25.00       25.00    
        25.00       25.00       25.00       25.00       25.00       25.00       25.00       25.00       25.00       25.00    
        25.00       25.00       25.00       25.00       25.00       25.00       25.00       25.00       25.00       25.00    
  25    25.00       25.00       25.00       25.00       25.00       25.00       25.00       25.00       25.00       25.00    
        25.00       25.00       25.00       25.00       25.00       25.00       25.00       25.00       25.00       25.00    
        25.00       25.00       25.00       25.00       25.00       25.00       25.00       25.00       25.00       25.00    
        25.00       25.00       25.00       25.00       25.00       25.00       25.00       25.00       25.00       25.00    
  26    25.00       25.00       25.00       25.00       25.00       25.00       25.00       25.00       25.00       25.00    
        25.00       25.00       25.00       25.00       25.00       25.00       25.00       25.00       25.00       25.00    
        25.00       25.00       25.00       25.00       25.00       25.00       25.00       25.00       25.00       25.00    
        25.00       25.00       25.00       25.00       25.00       25.00       25.00       25.00       25.00       25.00    
  27    25.00       25.00       25.00       25.00       25.00       25.00       25.00       25.00       25.00       25.00    
        25.00       25.00       25.00       25.00       25.00       25.00       25.00       25.00       25.00       25.00    
        25.00       25.00       25.00       25.00       25.00       25.00       25.00       25.00       25.00       25.00    
        25.00       25.00       25.00       25.00       25.00       25.00       25.00       25.00       25.00       25.00    
  28    25.00       25.00       25.00       25.00       25.00       25.00       25.00       25.00       25.00       25.00    
        25.00       25.00       25.00       25.00       25.00       25.00       25.00       25.00       25.00       25.00    
        25.00       25.00       25.00       25.00       25.00       25.00       25.00       25.00       25.00       25.00    
        25.00       25.00       25.00       25.00       25.00       25.00       25.00       25.00       25.00       25.00    
  29    25.00       25.00       25.00       25.00       25.00       25.00       25.00       25.00       25.00       25.00    
        25.00       25.00       25.00       25.00       25.00       25.00       25.00       25.00       25.00       25.00    
        25.00       25.00       25.00       25.00       25.00       25.00       25.00       25.00       25.00       25.00    
        25.00       25.00       25.00       25.00       25.00       25.00       25.00       25.00       25.00       25.00    
  30    25.00       25.00       25.00       25.00       25.00       25.00       25.00       25.00       25.00       25.00    
        25.00       25.00       25.00       25.00       25.00       25.00       25.00       25.00       25.00       25.00    
        25.00       25.00       25.00       25.00       25.00       25.00       25.00       25.00       25.00       25.00    
        25.00       25.00       25.00       25.00       25.00       25.00       25.00       25.00       25.00       25.00    
  31    25.00       25.00       25.00       25.00       25.00       25.00       25.00       25.00       25.00       25.00    
        25.00       25.00       25.00       25.00       25.00       25.00       25.00       25.00       25.00       25.00    
        25.00       25.00       25.00       25.00       25.00       25.00       25.00       25.00       25.00       25.00    
        25.00       25.00       25.00       25.00       25.00       25.00       25.00       25.00       25.00       25.00    
  32    25.00       25.00       25.00       25.00       25.00       25.00       25.00       25.00       25.00       25.00    
        25.00       25.00       25.00       25.00       25.00       25.00       25.00       25.00       25.00       25.00    
        25.00       25.00       25.00       25.00       25.00       25.00       25.00       25.00       25.00       25.00    
        25.00       25.00       25.00       25.00       25.00       25.00       25.00       25.00       25.00       25.00    
  33    25.00       25.00       25.00       25.00       25.00       25.00       25.00       25.00       25.00       25.00    
        25.00       25.00       25.00       25.00       25.00       25.00       25.00       25.00       25.00       25.00    
        25.00       25.00       25.00       25.00       25.00       25.00       25.00       25.00       25.00       25.00    
        25.00       25.00       25.00       25.00       25.00       25.00       25.00       25.00       25.00       25.00    
  34    25.00       25.00       25.00       25.00       25.00       25.00       25.00       25.00       25.00       25.00    
        25.00       25.00       25.00       25.00       25.00       25.00       25.00       25.00       25.00       25.00    
        25.00       25.00       25.00       25.00       25.00       25.00       25.00       25.00       25.00       25.00    
        25.00       25.00       25.00       25.00       25.00       25.00       25.00       25.00       25.00       25.00    
  35    25.00       25.00       25.00       25.00       25.00       25.00       25.00       25.00       25.00       25.00    
        25.00       25.00       25.00       25.00       25.00       25.00       25.00       25.00       25.00       25.00    
        25.00       25.00       25.00       25.00       25.00       25.00       25.00       25.00       25.00       25.00    
        25.00       25.00       25.00       25.00       25.00       25.00       25.00       25.00       25.00       25.00    
  36    25.00       25.00       25.00       25.00       25.00       25.00       25.00       25.00       25.00       25.00    
        25.00       25.00       25.00       25.00       25.00       25.00       25.00       25.00       25.00       25.00    
        25.00       25.00       25.00       25.00       25.00       25.00       25.00       25.00       25.00       25.00    
        25.00       25.00       25.00       25.00       25.00       25.00       25.00       25.00       25.00       25.00    
  37    25.00       25.00       25.00       25.00       25.00       25.00       25.00       25.00       25.00       25.00    
        25.00       25.00       25.00       25.00       25.00       25.00       25.00       25.00       25.00       25.00    
        25.00       25.00       25.00       25.00       25.00       25.00       25.00       25.00       25.00       25.00    
        25.00       25.00       25.00       25.00       25.00       25.00       25.00       25.00       25.00       25.00    
  38    25.00       25.00       25.00       25.00       25.00       25.00       25.00       25.00       25.00       25.00    
        25.00       25.00       25.00       25.00       25.00       25.00       25.00       25.00       25.00       25.00    
        25.00       25.00       25.00       25.00       25.00       25.00       25.00       25.00       25.00       25.00    
        25.00       25.00       25.00       25.00       25.00       25.00       25.00       25.00       25.00       25.00    
  39    25.00       25.00       25.00       25.00       25.00       25.00       25.00       25.00       25.00       25.00    
        25.00       25.00       25.00       25.00       25.00       25.00       25.00       25.00       25.00       25.00    
        25.00       25.00       25.00       25.00       25.00       25.00       25.00       25.00       25.00       25.00    
        25.00       25.00       25.00       25.00       25.00       25.00       25.00       25.00       25.00       25.00    
  40    25.00       25.00       25.00       25.00       25.00       25.00       25.00       25.00       25.00       25.00    
        25.00       25.00       25.00       25.00       25.00       25.00       25.00       25.00       25.00       25.00    
        25.00       25.00       25.00       25.00       25.00       25.00       25.00       25.00       25.00       25.00    
        25.00       25.00       25.00       25.00       25.00       25.00       25.00       25.00       25.00       25.00    
1
  VOLUMETRIC BUDGET FOR ENTIRE MODEL AT END OF TIME STEP    1, STRESS PERIOD   1
  ------------------------------------------------------------------------------

     CUMULATIVE VOLUMES      L**3       RATES FOR THIS TIME STEP      L**3/T
     ------------------                 ------------------------

           IN:                                      IN:
           ---                                      ---
             STORAGE =       7.0155E-02               STORAGE =       3.6924E-03
       CONSTANT HEAD =       3.7484E-02         CONSTANT HEAD =       1.9728E-03
            RECHARGE =       59375.0000              RECHARGE =        3125.0000

            TOTAL IN =       59375.1094              TOTAL IN =        3125.0056

          OUT:                                     OUT:
          ----                                     ----
             STORAGE =       59375.5469               STORAGE =        3125.0288
       CONSTANT HEAD =       3.4182E-02         CONSTANT HEAD =       1.7990E-03
            RECHARGE =           0.0000              RECHARGE =           0.0000

           TOTAL OUT =       59375.5820             TOTAL OUT =        3125.0305

            IN - OUT =          -0.4727              IN - OUT =      -2.4902E-02

 PERCENT DISCREPANCY =          -0.00     PERCENT DISCREPANCY =          -0.00






         TIME SUMMARY AT END OF TIME STEP    1 IN STRESS PERIOD    1
                    SECONDS     MINUTES      HOURS       DAYS        YEARS
                    -----------------------------------------------------------
   TIME STEP LENGTH 1.64160E+06  27360.      456.00      19.000     5.20192E-02
 STRESS PERIOD TIME 1.64160E+06  27360.      456.00      19.000     5.20192E-02
         TOTAL TIME 1.64160E+06  27360.      456.00      19.000     5.20192E-02
1
 
 SOLVING FOR HEAD 

 CELL CONVERSIONS FOR ITER.=  2  LAYER=  8  STEP=  2  PERIOD=   1   (ROW,COL)
    WET(  1,  1)   WET(  1,  2)   WET(  2,  1)   
     5 CALLS TO PCG ROUTINE FOR TIME STEP   2 IN STRESS PERIOD    1
    29 TOTAL ITERATIONS

 MAXIMUM HEAD CHANGE FOR EACH ITERATION (1 INDICATES THE FIRST INNER ITERATION):

    HEAD CHANGE    HEAD CHANGE    HEAD CHANGE    HEAD CHANGE    HEAD CHANGE 
   LAYER,ROW,COL  LAYER,ROW,COL  LAYER,ROW,COL  LAYER,ROW,COL  LAYER,ROW,COL
 ---------------------------------------------------------------------------
  1   2.904      0 -0.4137      0 -0.1302      0 -0.1457E-01  0 -0.6943E-02
   (  9,  1,  1)  ( 14,  2,  2)  ( 14,  1,  1)  ( 14,  4,  1)  ( 14,  1,  4)
  0 -0.1498E-02  0 -0.9943E-03  0 -0.3815E-03  0 -0.3662E-03  0 -0.4425E-04
   ( 14,  5,  2)  ( 14,  2,  5)  ( 14,  1,  1)  ( 14,  1,  1)  ( 14, 21,  2)
  1   1.378      0  0.2591      0  0.6975E-01  0  0.3189E-01  0  0.2007E-02
   (  8,  1,  1)  ( 14,  2,  2)  ( 14,  1,  1)  ( 14,  1,  1)  ( 11,  2,  2)
  0  0.2532E-02  0 -0.5015E-03  0  0.4719E-03  0  0.1137E-03  0 -0.3038E-04
   ( 10,  2,  1)  ( 13, 21,  2)  ( 14,  1,  1)  ( 14,  1,  1)  ( 14,  3, 23)
  1  0.3030E-01  0  0.1151E-01  0  0.3327E-03  0 -0.5996E-03  0 -0.8380E-04
   (  9,  2,  2)  ( 14,  1,  1)  ( 14, 23,  3)  ( 14,  2,  3)  ( 14,  1,  1)
  1 -0.3736E-03  0 -0.1182E-03  0  0.9108E-04  1 -0.2521E-04
   (  9,  2,  2)  (  9,  2,  2)  ( 14,  2,  2)  ( 14, 27,  2)

 MAXIMUM RESIDUAL FOR EACH ITERATION (1 INDICATES THE FIRST INNER ITERATION):

    RESIDUAL       RESIDUAL       RESIDUAL       RESIDUAL       RESIDUAL    
   LAYER,ROW,COL  LAYER,ROW,COL  LAYER,ROW,COL  LAYER,ROW,COL  LAYER,ROW,COL
 ---------------------------------------------------------------------------
  1  -97.25      0  -19.17      0   3.822      0   1.296      0 -0.5239    
   (  9,  1,  1)  (  9,  1,  1)  ( 11,  2,  2)  ( 11,  2,  2)  ( 13,  2,  2)
  0  0.2207      0  0.1275      0  0.7472E-01  0  0.2020E-01  0  0.1298E-01
   ( 10,  2,  2)  ( 10,  2,  2)  ( 10,  2,  2)  ( 10,  2,  2)  ( 10,  2,  2)
  1  -35.52      0   8.124      0  -2.550      0 -0.8624      0 -0.7073    
   (  8,  1,  1)  ( 13,  2,  2)  ( 14,  1,  1)  ( 10,  1,  2)  ( 10,  1,  2)
  0 -0.1887      0  0.1111      0  0.5145E-01  0  0.3177E-01  0  0.1959E-01
   ( 10,  1,  2)  ( 10,  1,  1)  ( 10,  1,  1)  ( 10,  1,  1)  ( 10,  1,  1)
  1  -4.854      0  0.3877      0  0.3065      0  0.1278      0  0.7674E-01
   (  9,  2,  2)  ( 10,  2,  2)  ( 10,  2,  2)  ( 10,  2,  2)  ( 10,  2,  2)
  1  0.9858E-01  0  0.5816E-01  0  0.2207E-01  1  0.3226E-01
   (  9,  2,  2)  (  9,  2,  2)  (  9,  2,  2)  (  9,  2,  2)



 NO OUTPUT CONTROL FOR STRESS PERIOD    1   TIME STEP    2
 
 SOLVING FOR HEAD 

 CELL CONVERSIONS FOR ITER.=  2  LAYER=  8  STEP=  3  PERIOD=   1   (ROW,COL)
    WET(  2,  2)   
     5 CALLS TO PCG ROUTINE FOR TIME STEP   3 IN STRESS PERIOD    1
    27 TOTAL ITERATIONS

 MAXIMUM HEAD CHANGE FOR EACH ITERATION (1 INDICATES THE FIRST INNER ITERATION):

    HEAD CHANGE    HEAD CHANGE    HEAD CHANGE    HEAD CHANGE    HEAD CHANGE 
   LAYER,ROW,COL  LAYER,ROW,COL  LAYER,ROW,COL  LAYER,ROW,COL  LAYER,ROW,COL
 ---------------------------------------------------------------------------
  1   2.540      0 -0.3217      0 -0.9397E-01  0  0.1756E-01  0  0.1885E-02
   (  9,  1,  1)  ( 14,  2,  1)  ( 14,  1,  1)  ( 12,  1,  1)  ( 14, 28,  3)
  0 -0.3420E-02  0  0.3391E-03  0  0.3965E-03  0 -0.4117E-04  1   1.495    
   ( 14,  1,  1)  ( 13, 21,  2)  ( 13,  2,  2)  ( 14, 22, 18)  (  8,  2,  2)
  0  0.2149      0  0.2339E-01  0  0.3115E-02  0  0.3821E-02  0  0.3949E-03
   ( 13,  2,  2)  ( 14,  1,  2)  ( 14,  1,  1)  ( 14,  1,  1)  ( 13,  2, 21)
  0 -0.7118E-03  0 -0.5454E-04  1  0.4044E-01  0 -0.1193E-01  0  0.1270E-02
   ( 14,  1,  1)  ( 14, 21,  1)  (  8,  2,  2)  ( 13,  2,  2)  ( 14,  1,  1)
  0  0.2211E-02  0  0.2447E-03  0 -0.1906E-03  0 -0.2644E-04  1 -0.4321E-03
   ( 14,  1,  1)  ( 14,  2,  2)  ( 10,  1,  1)  ( 14,  1,  2)  (  8,  1,  2)
  0 -0.7963E-04  1 -0.4926E-04
   ( 14,  1,  1)  ( 14,  1,  1)

 MAXIMUM RESIDUAL FOR EACH ITERATION (1 INDICATES THE FIRST INNER ITERATION):

    RESIDUAL       RESIDUAL       RESIDUAL       RESIDUAL       RESIDUAL    
   LAYER,ROW,COL  LAYER,ROW,COL  LAYER,ROW,COL  LAYER,ROW,COL  LAYER,ROW,COL
 ---------------------------------------------------------------------------
  1  -70.77      0  -9.567      0  -2.232      0  0.6863      0  0.5316    
   (  9,  2,  2)  (  9,  2,  2)  ( 10,  1,  1)  ( 10,  2,  2)  ( 10,  2,  2)
  0 -0.1294      0 -0.7275E-01  0  0.3266E-01  0  0.2249E-01  1  -28.37    
   ( 13,  2,  2)  ( 10,  1,  1)  ( 10,  2,  2)  ( 10,  2,  2)  ( 11,  2,  2)
  0  -3.712      0  -1.869      0  -1.402      0 -0.4368      0 -0.2736    
   ( 10,  2,  2)  ( 10,  2,  2)  ( 10,  2,  2)  ( 10,  2,  2)  ( 10,  2,  2)
  0 -0.9125E-01  0 -0.6481E-01  1  -8.137      0 -0.8596      0  0.6289    
   (  9,  1,  2)  (  9,  1,  2)  (  8,  2,  2)  (  8,  2,  2)  (  9,  2,  2)
  0  0.2210      0  0.1008      0  0.2549E-01  0  0.1721E-01  1 -0.1198    
   (  9,  2,  2)  (  9,  2,  2)  (  9,  2,  2)  (  9,  2,  2)  (  8,  2,  2)
  0 -0.6446E-01  1 -0.5603E-01
   (  8,  2,  2)  (  8,  2,  2)



 NO OUTPUT CONTROL FOR STRESS PERIOD    1   TIME STEP    3
 
 SOLVING FOR HEAD 

 CELL CONVERSIONS FOR ITER.=  2  LAYER=  7  STEP=  4  PERIOD=   1   (ROW,COL)
    WET(  1,  1)   
     4 CALLS TO PCG ROUTINE FOR TIME STEP   4 IN STRESS PERIOD    1
    23 TOTAL ITERATIONS

 MAXIMUM HEAD CHANGE FOR EACH ITERATION (1 INDICATES THE FIRST INNER ITERATION):

    HEAD CHANGE    HEAD CHANGE    HEAD CHANGE    HEAD CHANGE    HEAD CHANGE 
   LAYER,ROW,COL  LAYER,ROW,COL  LAYER,ROW,COL  LAYER,ROW,COL  LAYER,ROW,COL
 ---------------------------------------------------------------------------
  1   1.864      0 -0.2948      0 -0.5308E-01  0 -0.6658E-02  0 -0.7429E-02
   (  8,  1,  1)  ( 14,  2,  2)  ( 14,  1,  3)  ( 14,  1,  4)  ( 14,  4,  1)
  0 -0.1348E-02  0 -0.3774E-03  0 -0.5634E-03  0 -0.1791E-03  0  0.7539E-04
   ( 14,  5,  2)  ( 14,  5,  2)  ( 14,  1,  1)  ( 14,  1,  1)  ( 11,  1,  1)
  1  0.7109      0  0.2803      0  0.3470E-01  0  0.2394E-02  0  0.3540E-02
   (  7,  1,  1)  ( 14,  1,  1)  ( 13,  1,  2)  ( 12,  2,  2)  ( 12,  2,  2)
  0  0.3685E-03  0  0.4559E-03  0  0.6891E-04  1  0.2112E-02  0  0.3477E-03
   (  9,  1,  1)  ( 13,  3,  3)  ( 13, 21,  2)  (  8,  1,  1)  ( 13,  2,  2)
  0  0.2778E-03  0 -0.7843E-04  1 -0.3374E-04
   ( 12,  2,  2)  ( 14,  1,  1)  ( 14,  2,  2)

 MAXIMUM RESIDUAL FOR EACH ITERATION (1 INDICATES THE FIRST INNER ITERATION):

    RESIDUAL       RESIDUAL       RESIDUAL       RESIDUAL       RESIDUAL    
   LAYER,ROW,COL  LAYER,ROW,COL  LAYER,ROW,COL  LAYER,ROW,COL  LAYER,ROW,COL
 ---------------------------------------------------------------------------
  1  -37.18      0  -9.013      0   1.998      0   1.177      0  0.2579    
   (  8,  1,  1)  ( 13,  2,  2)  ( 10,  2,  2)  ( 10,  2,  2)  ( 14,  1,  2)
  0  0.1120      0  0.9233E-01  0  0.2472E-01  0 -0.1162E-01  0  0.5308E-02
   ( 14,  1,  1)  ( 14,  1,  1)  ( 14,  1,  1)  ( 10,  1,  1)  ( 10,  2,  3)
  1  -39.47      0  -3.263      0  -1.344      0 -0.9970      0 -0.3778    
   (  7,  1,  1)  (  7,  1,  1)  (  9,  1,  1)  (  9,  1,  1)  (  9,  1,  1)
  0 -0.2540      0 -0.9009E-01  0 -0.5679E-01  1  0.3737      0  0.1710    
   (  9,  1,  1)  (  9,  1,  1)  (  9,  1,  1)  (  8,  2,  2)  (  8,  2,  2)
  0 -0.4609E-01  0 -0.2998E-01  1 -0.3407E-01
   (  8,  1,  1)  (  8,  1,  1)  (  9,  2,  2)



 NO OUTPUT CONTROL FOR STRESS PERIOD    1   TIME STEP    4
 
 SOLVING FOR HEAD 

 CELL CONVERSIONS FOR ITER.=  2  LAYER=  7  STEP=  5  PERIOD=   1   (ROW,COL)
    WET(  1,  2)   WET(  2,  1)   
     5 CALLS TO PCG ROUTINE FOR TIME STEP   5 IN STRESS PERIOD    1
    30 TOTAL ITERATIONS

 MAXIMUM HEAD CHANGE FOR EACH ITERATION (1 INDICATES THE FIRST INNER ITERATION):

    HEAD CHANGE    HEAD CHANGE    HEAD CHANGE    HEAD CHANGE    HEAD CHANGE 
   LAYER,ROW,COL  LAYER,ROW,COL  LAYER,ROW,COL  LAYER,ROW,COL  LAYER,ROW,COL
 ---------------------------------------------------------------------------
  1   1.796      0 -0.3505      0 -0.6695E-01  0 -0.8349E-02  0 -0.3062E-02
   (  8,  1,  1)  ( 14,  1,  1)  ( 14,  2,  1)  ( 14,  1,  4)  ( 14,  4,  1)
  0 -0.1330E-02  0  0.5106E-03  0 -0.2627E-03  0 -0.1497E-03  0  0.3386E-04
   ( 14,  5,  2)  ( 13, 21,  2)  ( 14,  2,  2)  ( 14,  2,  2)  ( 13,  2,  2)
  1  0.7436      0  0.1830      0  0.7550E-01  0  0.3612E-02  0  0.2810E-02
   (  7,  2,  1)  ( 13,  2,  1)  ( 14,  1,  1)  ( 14,  3,  1)  ( 14,  3,  1)
  0  0.7159E-03  0  0.7898E-03  0  0.1261E-03  0 -0.1680E-03  0 -0.1684E-04
   ( 11,  2,  2)  ( 11,  2,  2)  ( 14,  1,  1)  ( 14,  2,  2)  ( 14, 25, 25)
  1 -0.3101E-01  0  0.1406E-01  0  0.1296E-02  0  0.3712E-03  0 -0.4335E-03
   (  7,  1,  1)  ( 14,  1,  1)  ( 10,  1,  1)  (  9,  1,  1)  ( 14,  1,  1)
  0 -0.1174E-03  0 -0.4898E-04  1 -0.2783E-03  0 -0.9293E-04  1  0.6688E-04
   ( 14,  1,  1)  ( 14,  1,  1)  (  7,  1,  1)  (  7,  1,  1)  ( 14,  1,  1)

 MAXIMUM RESIDUAL FOR EACH ITERATION (1 INDICATES THE FIRST INNER ITERATION):

    RESIDUAL       RESIDUAL       RESIDUAL       RESIDUAL       RESIDUAL    
   LAYER,ROW,COL  LAYER,ROW,COL  LAYER,ROW,COL  LAYER,ROW,COL  LAYER,ROW,COL
 ---------------------------------------------------------------------------
  1  -31.01      0  -7.072      0   1.415      0 -0.4220      0 -0.2961    
   (  8,  1,  2)  (  8,  2,  2)  ( 10,  2,  2)  (  8,  1,  2)  ( 13,  2,  2)
  0  0.8193E-01  0  0.5344E-01  0  0.2074E-01  0 -0.1283E-01  0  0.5850E-02
   ( 14,  1,  2)  ( 14,  2,  2)  ( 14,  1,  1)  ( 11,  2,  2)  ( 10,  2,  3)
  1  -32.31      0  -5.429      0   1.899      0   1.234      0  0.5672    
   (  7,  1,  2)  ( 14,  1,  1)  (  9,  1,  1)  (  9,  1,  1)  (  9,  1,  1)
  0  0.3541      0 -0.1554      0 -0.1055      0 -0.4655E-01  0 -0.3393E-01
   (  9,  1,  1)  (  8,  1,  1)  (  8,  1,  1)  (  8,  1,  1)  (  8,  1,  1)
  1   6.811      0  0.8419      0  0.3991      0  0.2352      0  0.5760E-01
   (  7,  1,  1)  (  7,  1,  1)  (  7,  1,  1)  (  7,  1,  1)  (  7,  1,  1)
  0  0.2154E-01  0 -0.1226E-01  1  0.8338E-01  0  0.4713E-01  1  0.3664E-01
   (  7,  1,  1)  (  8,  1,  1)  (  7,  1,  1)  (  7,  1,  1)  (  7,  1,  1)



 NO OUTPUT CONTROL FOR STRESS PERIOD    1   TIME STEP    5
 
 SOLVING FOR HEAD 

 CELL CONVERSIONS FOR ITER.=  2  LAYER=  7  STEP=  6  PERIOD=   1   (ROW,COL)
    WET(  2,  2)   

 CELL CONVERSIONS FOR ITER.=  2  LAYER=  8  STEP=  6  PERIOD=   1   (ROW,COL)
    WET(  1,  3)   WET(  3,  1)   
     6 CALLS TO PCG ROUTINE FOR TIME STEP   6 IN STRESS PERIOD    1
    33 TOTAL ITERATIONS

 MAXIMUM HEAD CHANGE FOR EACH ITERATION (1 INDICATES THE FIRST INNER ITERATION):

    HEAD CHANGE    HEAD CHANGE    HEAD CHANGE    HEAD CHANGE    HEAD CHANGE 
   LAYER,ROW,COL  LAYER,ROW,COL  LAYER,ROW,COL  LAYER,ROW,COL  LAYER,ROW,COL
 ---------------------------------------------------------------------------
  1   1.360      0 -0.1913      0 -0.1014      0  0.7898E-02  0  0.4948E-02
   (  8,  1,  2)  ( 14,  2,  1)  ( 14,  1,  1)  ( 10,  1,  1)  ( 10,  1,  1)
  0  0.1359E-02  0 -0.3223E-03  0  0.3968E-03  0  0.3473E-04  1  0.5209    
   ( 13,  1,  3)  ( 14,  5,  2)  ( 12,  2,  2)  ( 14, 25, 33)  (  7,  2,  2)
  0  0.2218      0  0.2726E-01  0  0.3620E-02  0  0.4071E-02  0 -0.9744E-03
   ( 13,  2,  2)  ( 14,  2,  1)  ( 14,  1,  1)  ( 14,  1,  1)  ( 12,  1,  1)
  0 -0.4244E-03  0  0.9584E-04  1 -0.4170E-01  0 -0.1530E-01  0  0.4046E-02
   ( 11,  1,  1)  ( 14,  1,  1)  (  8,  2,  1)  ( 14,  1,  1)  ( 14,  1,  1)
  0  0.3859E-02  0  0.4048E-03  0  0.4768E-03  0 -0.1073E-03  0 -0.7097E-04
   ( 14,  1,  1)  ( 14,  3,  1)  ( 14,  1,  3)  (  9,  1,  1)  (  9,  1,  1)
  1 -0.4231E-02  0 -0.1945E-02  0  0.1936E-03  0  0.4906E-03  0  0.7823E-04
   (  8,  2,  1)  ( 14,  1,  1)  ( 14,  1,  1)  ( 14,  1,  1)  ( 14,  1,  1)
  1 -0.4034E-03  0 -0.7913E-04  1 -0.3970E-04
   (  8,  1,  2)  ( 14,  1,  1)  ( 14, 31,  3)

 MAXIMUM RESIDUAL FOR EACH ITERATION (1 INDICATES THE FIRST INNER ITERATION):

    RESIDUAL       RESIDUAL       RESIDUAL       RESIDUAL       RESIDUAL    
   LAYER,ROW,COL  LAYER,ROW,COL  LAYER,ROW,COL  LAYER,ROW,COL  LAYER,ROW,COL
 ---------------------------------------------------------------------------
  1  -26.60      0   7.128      0  -1.515      0 -0.6911      0  0.2183    
   (  8,  2,  2)  ( 14,  1,  1)  (  9,  1,  1)  (  9,  1,  1)  ( 14,  2,  2)
  0  0.7241E-01  0 -0.6314E-01  0  0.1438E-01  0  0.1050E-01  1  -54.18    
   ( 14,  1,  2)  ( 12,  2,  2)  (  9,  2,  2)  (  9,  2,  2)  (  7,  2,  2)
  0   3.797      0  -1.371      0 -0.9357      0 -0.2934      0 -0.1281    
   ( 13,  2,  2)  (  9,  2,  2)  (  9,  2,  2)  (  9,  2,  2)  (  9,  2,  2)
  0 -0.5938E-01  0 -0.3470E-01  1  -6.100      0  -1.115      0  0.6585    
   (  8,  1,  2)  (  8,  1,  2)  (  8,  1,  3)  (  8,  1,  3)  (  8,  2,  2)
  0  0.3428      0  0.1930      0  0.4582E-01  0  0.2349E-01  0 -0.1112E-01
   (  8,  2,  2)  (  8,  2,  2)  (  9,  1,  1)  (  9,  1,  1)  ( 11,  1,  1)
  1 -0.7158      0 -0.1213      0 -0.8064E-01  0  0.3457E-01  0  0.2425E-01
   (  8,  1,  3)  (  8,  1,  3)  (  8,  1,  3)  (  9,  1,  1)  (  9,  1,  1)
  1 -0.9333E-01  0 -0.5164E-01  1 -0.6038E-01
   (  8,  1,  3)  (  8,  1,  3)  (  8,  1,  3)



 NO OUTPUT CONTROL FOR STRESS PERIOD    1   TIME STEP    6
 
 SOLVING FOR HEAD 

 CELL CONVERSIONS FOR ITER.=  3  LAYER=  8  STEP=  7  PERIOD=   1   (ROW,COL)
    WET(  2,  3)   WET(  3,  2)   
     7 CALLS TO PCG ROUTINE FOR TIME STEP   7 IN STRESS PERIOD    1
    42 TOTAL ITERATIONS

 MAXIMUM HEAD CHANGE FOR EACH ITERATION (1 INDICATES THE FIRST INNER ITERATION):

    HEAD CHANGE    HEAD CHANGE    HEAD CHANGE    HEAD CHANGE    HEAD CHANGE 
   LAYER,ROW,COL  LAYER,ROW,COL  LAYER,ROW,COL  LAYER,ROW,COL  LAYER,ROW,COL
 ---------------------------------------------------------------------------
  1   1.190      0 -0.2105      0 -0.6055E-01  0 -0.3085E-02  0 -0.5315E-02
   (  8,  2,  2)  ( 13,  2,  2)  ( 14,  2,  1)  ( 14,  1,  4)  ( 14,  4,  1)
  0  0.2339E-02  0  0.8143E-03  0 -0.3807E-03  0 -0.2349E-03  0 -0.3388E-04
   ( 12,  1,  1)  ( 11,  1,  1)  ( 14,  1,  1)  ( 14,  1,  1)  ( 14,  1,  4)
  1  0.2503      0  0.6291E-01  0  0.2892E-01  0  0.7085E-02  0  0.5909E-03
   (  9,  2,  3)  (  9,  3,  2)  ( 14,  2,  1)  ( 14,  1,  1)  ( 14, 19, 23)
  0 -0.1468E-02  0 -0.2084E-03  0 -0.2227E-03  0 -0.3872E-04  1 -0.3566    
   ( 10,  1,  1)  ( 14,  2,  2)  ( 14,  1,  2)  ( 14,  1,  2)  (  9,  2,  3)
  0  0.1206      0  0.2054E-01  0  0.3963E-02  0  0.3630E-02  0  0.3400E-03
   ( 13,  2,  3)  ( 13,  3,  3)  ( 14,  1,  1)  ( 14,  1,  1)  ( 14,  2,  2)
  0 -0.2228E-03  0  0.5780E-04  1 -0.3880E-01  0  0.1391E-01  0  0.1111E-02
   ( 12,  1,  1)  ( 14,  1,  6)  (  8,  2,  2)  ( 13,  2,  2)  ( 14,  1,  2)
  0  0.1079E-02  0  0.3411E-03  0  0.2511E-03  0 -0.4363E-04  1 -0.5202E-02
   ( 14,  1,  2)  ( 14,  1,  1)  ( 14,  1,  1)  ( 10,  1,  1)  (  8,  2,  2)
  0  0.1617E-02  0  0.1131E-03  0  0.1914E-03  0  0.4894E-04  1 -0.5477E-03
   ( 13,  2,  2)  ( 13,  2,  2)  ( 14,  2,  1)  ( 14,  2,  1)  (  8,  2,  2)
  0 -0.8972E-04  1  0.4453E-04
   (  8,  2,  2)  ( 13,  2,  2)

 MAXIMUM RESIDUAL FOR EACH ITERATION (1 INDICATES THE FIRST INNER ITERATION):

    RESIDUAL       RESIDUAL       RESIDUAL       RESIDUAL       RESIDUAL    
   LAYER,ROW,COL  LAYER,ROW,COL  LAYER,ROW,COL  LAYER,ROW,COL  LAYER,ROW,COL
 ---------------------------------------------------------------------------
  1   21.95      0  -5.770      0  0.8530      0  0.6244      0 -0.2749    
   ( 10,  2,  2)  ( 13,  2,  2)  ( 14,  1,  1)  (  8,  2,  2)  ( 10,  1,  1)
  0 -0.7429E-01  0  0.6946E-01  0  0.2794E-01  0 -0.1280E-01  0 -0.7292E-02
   (  9,  1,  1)  ( 14,  1,  1)  ( 14,  1,  1)  ( 10,  2,  2)  ( 10,  2,  2)
  1  -39.74      0  -7.346      0  -2.377      0 -0.7997      0 -0.4832    
   (  9,  2,  3)  (  9,  2,  3)  ( 10,  2,  2)  ( 10,  2,  2)  ( 10,  2,  2)
  0 -0.1758      0 -0.1056      0 -0.3618E-01  0 -0.2068E-01  1  -49.07    
   ( 10,  2,  2)  ( 10,  2,  2)  ( 10,  2,  2)  ( 10,  2,  2)  (  8,  2,  3)
  0  -3.294      0  -1.120      0  0.5834      0 -0.1685      0 -0.1074    
   (  8,  2,  3)  ( 10,  2,  3)  ( 10,  2,  2)  (  9,  2,  2)  (  9,  2,  2)
  0 -0.5781E-01  0 -0.3619E-01  1   7.792      0  0.9054      0 -0.5169    
   (  9,  2,  2)  (  9,  2,  2)  (  8,  2,  2)  (  8,  2,  2)  (  8,  2,  3)
  0 -0.2184      0 -0.9990E-01  0 -0.2440E-01  0  0.1776E-01  1  0.9762    
   ( 10,  2,  2)  (  9,  2,  2)  (  8,  2,  3)  (  9,  2,  3)  (  8,  2,  2)
  0  0.1531      0 -0.9059E-01  0 -0.3557E-01  0 -0.1819E-01  1  0.1216    
   (  8,  2,  2)  (  8,  2,  3)  (  9,  2,  2)  (  9,  2,  2)  (  8,  2,  2)
  0  0.6680E-01  1  0.7936E-01
   (  8,  2,  2)  (  8,  2,  2)



 NO OUTPUT CONTROL FOR STRESS PERIOD    1   TIME STEP    7
 
 SOLVING FOR HEAD 

 CELL CONVERSIONS FOR ITER.=  3  LAYER=  6  STEP=  8  PERIOD=   1   (ROW,COL)
    WET(  1,  1)   
     8 CALLS TO PCG ROUTINE FOR TIME STEP   8 IN STRESS PERIOD    1
    41 TOTAL ITERATIONS

 MAXIMUM HEAD CHANGE FOR EACH ITERATION (1 INDICATES THE FIRST INNER ITERATION):

    HEAD CHANGE    HEAD CHANGE    HEAD CHANGE    HEAD CHANGE    HEAD CHANGE 
   LAYER,ROW,COL  LAYER,ROW,COL  LAYER,ROW,COL  LAYER,ROW,COL  LAYER,ROW,COL
 ---------------------------------------------------------------------------
  1  0.8853      0 -0.1216      0  0.1878E-01  0 -0.1603E-02  0 -0.3133E-02
   (  7,  1,  1)  ( 14,  2,  2)  ( 12,  2,  2)  ( 14,  4,  1)  ( 14,  1,  5)
  0  0.7054E-03  0  0.8789E-03  0 -0.2995E-03  0 -0.7407E-04  1  0.2266    
   ( 11,  1,  1)  ( 12,  1,  1)  ( 14,  1,  1)  ( 14,  1,  1)  (  7,  1,  1)
  0 -0.9762E-01  0  0.3174E-01  0 -0.6015E-02  0  0.4499E-03  0  0.7782E-03
   ( 14,  1,  1)  ( 13,  2,  2)  ( 14,  2,  2)  ( 14,  3,  1)  ( 14,  3,  1)
  0  0.2338E-03  0  0.1346E-03  0  0.1473E-04  1  -1.017      0  0.4637    
   ( 13,  1,  2)  ( 13,  1,  2)  ( 12, 19,  2)  (  7,  1,  1)  ( 14,  1,  1)
  0  0.6517E-01  0  0.1232E-01  0 -0.1419E-02  0 -0.1767E-02  0  0.2116E-03
   ( 14,  2,  1)  ( 12,  2,  2)  ( 14, 25, 25)  ( 14,  2,  2)  (  8,  1,  1)
  0  0.2415E-03  0  0.8922E-04  1  0.3058E-01  0 -0.2706E-02  0 -0.3880E-03
   ( 11,  2,  2)  ( 14, 21,  1)  (  6,  1,  1)  ( 14,  2,  1)  ( 14,  1,  1)
  0 -0.8266E-03  0 -0.7891E-04  1 -0.3072E-02  0 -0.3995E-03  0 -0.3638E-03
   ( 14,  1,  1)  ( 14,  1,  1)  (  6,  1,  1)  ( 14,  1,  1)  ( 14,  1,  1)
  0 -0.5093E-04  1 -0.9257E-03  0 -0.5589E-04  1 -0.2960E-03  0 -0.7890E-04
   ( 14,  2,  1)  (  6,  1,  1)  (  6,  1,  1)  (  6,  1,  1)  (  6,  1,  1)
  1  0.7764E-04
   ( 14,  1,  1)

 MAXIMUM RESIDUAL FOR EACH ITERATION (1 INDICATES THE FIRST INNER ITERATION):

    RESIDUAL       RESIDUAL       RESIDUAL       RESIDUAL       RESIDUAL    
   LAYER,ROW,COL  LAYER,ROW,COL  LAYER,ROW,COL  LAYER,ROW,COL  LAYER,ROW,COL
 ---------------------------------------------------------------------------
  1  -9.360      0  -3.545      0  0.4040      0  0.3912      0 -0.1206    
   (  9,  3,  3)  ( 13,  2,  2)  (  8,  2,  2)  (  9,  2,  2)  (  9,  1,  1)
  0 -0.6670E-01  0  0.3574E-01  0  0.1103E-01  0  0.5396E-02  1  -49.58    
   ( 10,  2,  2)  ( 14,  1,  1)  ( 14,  2,  2)  ( 14,  2,  2)  (  7,  1,  1)
  0  -11.70      0  -3.702      0  0.4288      0  0.2657      0  0.9802E-01
   (  7,  1,  1)  (  7,  1,  1)  (  8,  1,  1)  (  8,  1,  1)  (  8,  1,  1)
  0  0.5169E-01  0  0.2329E-01  0  0.1366E-01  1   126.2      0   10.70    
   (  8,  1,  1)  (  8,  1,  1)  (  8,  1,  1)  (  7,  1,  1)  (  7,  1,  1)
  0  -3.355      0  -1.302      0 -0.8682      0 -0.2960      0 -0.1852    
   (  8,  1,  1)  (  8,  1,  1)  (  8,  1,  1)  (  8,  1,  1)  (  8,  1,  1)
  0 -0.6834E-01  0 -0.4042E-01  1  -1.040      0 -0.1378      0 -0.7054E-01
   (  8,  1,  1)  (  8,  1,  1)  (  6,  1,  1)  (  6,  1,  1)  (  6,  1,  1)
  0  0.2104E-01  0  0.1583E-01  1  0.1405      0  0.5924E-01  0  0.1019E-01
   ( 10,  2,  2)  (  9,  2,  2)  (  6,  1,  1)  (  6,  1,  1)  (  8,  1,  1)
  0  0.6619E-02  1  0.6931E-01  0  0.1818E-01  1  0.1179      0  0.2716E-01
   (  8,  1,  1)  (  6,  1,  1)  (  6,  1,  1)  (  6,  1,  1)  (  6,  1,  1)
  1  0.4835E-01
   (  6,  1,  1)



 NO OUTPUT CONTROL FOR STRESS PERIOD    1   TIME STEP    8
 
 SOLVING FOR HEAD 
     5 CALLS TO PCG ROUTINE FOR TIME STEP   9 IN STRESS PERIOD    1
    24 TOTAL ITERATIONS

 MAXIMUM HEAD CHANGE FOR EACH ITERATION (1 INDICATES THE FIRST INNER ITERATION):

    HEAD CHANGE    HEAD CHANGE    HEAD CHANGE    HEAD CHANGE    HEAD CHANGE 
   LAYER,ROW,COL  LAYER,ROW,COL  LAYER,ROW,COL  LAYER,ROW,COL  LAYER,ROW,COL
 ---------------------------------------------------------------------------
  1  0.6652      0 -0.6218E-01  0 -0.2572E-01  0 -0.2535E-02  0 -0.3079E-02
   (  8,  1,  3)  ( 14,  1,  3)  ( 14,  1,  1)  ( 14,  1,  1)  ( 14,  1,  1)
  0  0.3949E-03  0  0.4737E-03  0  0.8286E-04  1  0.2137      0 -0.6833E-01
   ( 12,  1,  1)  ( 12,  1,  1)  ( 13,  2,  2)  (  7,  1,  1)  ( 14,  1,  1)
  0 -0.1296E-01  0 -0.2021E-02  0 -0.2859E-02  0  0.6775E-03  0  0.6011E-03
   ( 14,  2,  1)  ( 14,  2,  2)  ( 13,  2,  2)  ( 14,  1,  1)  ( 14,  1,  1)
  0  0.5295E-04  1 -0.6157E-02  0  0.2013E-02  0  0.2082E-03  0  0.3873E-03
   ( 14,  1,  1)  (  8,  2,  2)  ( 14,  2,  2)  ( 14,  2,  2)  ( 14,  1,  2)
  0  0.8426E-04  1 -0.3822E-03  0 -0.7492E-04  1  0.4896E-04
   ( 14,  1,  1)  (  8,  2,  2)  (  8,  2,  2)  ( 13,  2,  2)

 MAXIMUM RESIDUAL FOR EACH ITERATION (1 INDICATES THE FIRST INNER ITERATION):

    RESIDUAL       RESIDUAL       RESIDUAL       RESIDUAL       RESIDUAL    
   LAYER,ROW,COL  LAYER,ROW,COL  LAYER,ROW,COL  LAYER,ROW,COL  LAYER,ROW,COL
 ---------------------------------------------------------------------------
  1  -6.832      0   2.005      0  0.3670      0 -0.3027      0 -0.7222E-01
   (  9,  3,  3)  ( 14,  2,  2)  ( 14,  1,  1)  ( 13,  3,  3)  ( 10,  1,  1)
  0 -0.3909E-01  0 -0.1969E-01  0  0.1118E-01  1  -52.06      0  -7.475    
   ( 10,  1,  1)  ( 13,  2,  2)  ( 14,  1,  1)  (  7,  1,  1)  (  7,  1,  1)
  0  -2.511      0  -1.579      0 -0.3835      0  0.1857      0  0.7348E-01
   (  7,  1,  1)  (  7,  1,  1)  (  7,  1,  1)  (  8,  1,  1)  (  8,  1,  1)
  0  0.5086E-01  1   1.195      0  0.2579      0  0.1498      0 -0.6320E-01
   (  8,  1,  1)  (  8,  2,  2)  (  8,  2,  2)  (  8,  2,  2)  (  9,  2,  2)
  0 -0.4038E-01  1  0.9862E-01  0  0.5750E-01  1  0.5644E-01
   (  9,  2,  2)  (  8,  2,  2)  (  8,  2,  2)  (  8,  2,  2)



 NO OUTPUT CONTROL FOR STRESS PERIOD    1   TIME STEP    9
 
 SOLVING FOR HEAD 

 CELL CONVERSIONS FOR ITER.=  3  LAYER=  8  STEP= 10  PERIOD=   1   (ROW,COL)
    WET(  3,  3)   
     6 CALLS TO PCG ROUTINE FOR TIME STEP  10 IN STRESS PERIOD    1
    36 TOTAL ITERATIONS

 MAXIMUM HEAD CHANGE FOR EACH ITERATION (1 INDICATES THE FIRST INNER ITERATION):

    HEAD CHANGE    HEAD CHANGE    HEAD CHANGE    HEAD CHANGE    HEAD CHANGE 
   LAYER,ROW,COL  LAYER,ROW,COL  LAYER,ROW,COL  LAYER,ROW,COL  LAYER,ROW,COL
 ---------------------------------------------------------------------------
  1  0.7723      0 -0.1019      0 -0.3483E-01  0 -0.1244E-02  0  0.2731E-02
   (  6,  1,  1)  ( 14,  1,  1)  ( 14,  2,  2)  ( 14, 23, 23)  ( 12,  1,  2)
  0  0.5954E-03  0  0.6577E-03  0 -0.9477E-04  1  0.1629      0  0.6680E-01
   ( 13,  2,  2)  ( 12,  2,  2)  ( 14,  1,  1)  (  9,  3,  3)  (  9,  3,  3)
  0  0.1687E-01  0  0.3516E-02  0 -0.1311E-02  0 -0.1929E-02  0 -0.3776E-03
   ( 14,  1,  2)  ( 11,  1,  1)  ( 14,  2,  2)  ( 14,  2,  2)  ( 13,  1,  1)
  0 -0.2363E-03  0  0.1270E-03  0  0.8545E-04  1 -0.2154      0  0.7843E-01
   ( 14,  1,  2)  (  7,  1,  2)  ( 14,  1,  1)  (  9,  3,  3)  ( 13,  3,  3)
  0 -0.9492E-02  0  0.2808E-02  0  0.7402E-03  0  0.1104E-02  0  0.1140E-03
   ( 13,  2,  1)  (  8,  3,  3)  ( 10,  1,  2)  ( 14,  2,  2)  ( 14,  1,  1)
  0 -0.1906E-03  0 -0.4056E-04  1  0.4690E-02  0 -0.1765E-02  0  0.4306E-03
   ( 12,  2,  2)  ( 14,  1,  1)  (  8,  3,  3)  ( 14,  2,  2)  (  8,  1,  2)
  0  0.1555E-03  0  0.1696E-03  0 -0.3818E-04  1  0.3602E-03  0  0.8600E-04
   (  8,  1,  2)  ( 14,  2,  2)  (  9,  2,  2)  (  8,  3,  3)  (  8,  3,  3)
  1 -0.4291E-04
   ( 14,  2,  2)

 MAXIMUM RESIDUAL FOR EACH ITERATION (1 INDICATES THE FIRST INNER ITERATION):

    RESIDUAL       RESIDUAL       RESIDUAL       RESIDUAL       RESIDUAL    
   LAYER,ROW,COL  LAYER,ROW,COL  LAYER,ROW,COL  LAYER,ROW,COL  LAYER,ROW,COL
 ---------------------------------------------------------------------------
  1  -6.777      0   2.746      0  0.2757      0 -0.2181      0 -0.1815    
   (  9,  3,  3)  ( 14,  2,  2)  (  8,  2,  2)  ( 10,  1,  2)  ( 13,  2,  2)
  0 -0.9687E-01  0  0.2664E-01  0  0.1547E-01  1  -27.91      0   4.226    
   ( 13,  2,  2)  ( 14,  2,  2)  ( 14,  2,  2)  (  9,  3,  3)  ( 10,  3,  3)
  0   1.579      0  0.8938      0  0.5966      0  0.1509      0  0.6353E-01
   ( 10,  3,  3)  ( 10,  3,  3)  ( 10,  3,  3)  ( 10,  3,  3)  ( 10,  3,  3)
  0 -0.3732E-01  0 -0.2221E-01  0 -0.1243E-01  1  -40.04      0  -3.216    
   (  8,  1,  1)  (  8,  1,  1)  (  8,  1,  1)  (  8,  3,  3)  (  8,  3,  3)
  0  -1.400      0 -0.5834      0 -0.3722      0 -0.7004E-01  0  0.3536E-01
   (  8,  3,  3)  ( 10,  3,  3)  ( 10,  3,  3)  ( 10,  3,  3)  ( 11,  2,  2)
  0  0.1867E-01  0  0.1257E-01  1  -1.191      0 -0.3093      0 -0.1445    
   ( 11,  3,  3)  ( 11,  3,  3)  (  8,  3,  3)  (  8,  3,  3)  (  8,  3,  3)
  0 -0.8894E-01  0 -0.3814E-01  0  0.2092E-01  1 -0.1126      0 -0.6600E-01
   (  8,  3,  3)  (  8,  3,  3)  (  9,  2,  2)  (  8,  3,  3)  (  8,  3,  3)
  1 -0.6659E-01
   (  8,  3,  3)



 OUTPUT CONTROL FOR STRESS PERIOD    1   TIME STEP   10
    SAVE BUDGET
    PRINT HEAD FOR ALL LAYERS
    PRINT BUDGET
 UBDSV1 SAVING "         STORAGE" ON UNIT  32 AT TIME STEP 10, STRESS PERIOD   1
 UBDSV2 SAVING "   CONSTANT HEAD" ON UNIT  32 AT TIME STEP 10, STRESS PERIOD   1
 UBDSV1 SAVING "FLOW RIGHT FACE " ON UNIT  32 AT TIME STEP 10, STRESS PERIOD   1
 UBDSV1 SAVING "FLOW FRONT FACE " ON UNIT  32 AT TIME STEP 10, STRESS PERIOD   1
 UBDSV1 SAVING "FLOW LOWER FACE " ON UNIT  32 AT TIME STEP 10, STRESS PERIOD   1
 UBDSV3 SAVING "        RECHARGE" ON UNIT  32 AT TIME STEP 10, STRESS PERIOD   1
1
              HEAD IN LAYER   1 AT END OF TIME STEP  10 IN STRESS PERIOD    1
  ---------------------------------------------------------------------------

            1           2           3           4           5           6           7           8           9          10
           11          12          13          14          15          16          17          18          19          20
           21          22          23          24          25          26          27          28          29          30
           31          32          33          34          35          36          37          38          39          40
 ........................................................................................................................
   1   -99.90      -99.90      -99.90      -99.90      -99.90      -99.90      -99.90      -99.90      -99.90      -99.90    
       -99.90      -99.90      -99.90      -99.90      -99.90      -99.90      -99.90      -99.90      -99.90      -99.90    
       -99.90      -99.90      -99.90      -99.90      -99.90      -99.90      -99.90      -99.90      -99.90      -99.90    
       -99.90      -99.90      -99.90      -99.90      -99.90      -99.90      -99.90      -99.90      -99.90      -99.90    
   2   -99.90      -99.90      -99.90      -99.90      -99.90      -99.90      -99.90      -99.90      -99.90      -99.90    
       -99.90      -99.90      -99.90      -99.90      -99.90      -99.90      -99.90      -99.90      -99.90      -99.90    
       -99.90      -99.90      -99.90      -99.90      -99.90      -99.90      -99.90      -99.90      -99.90      -99.90    
       -99.90      -99.90      -99.90      -99.90      -99.90      -99.90      -99.90      -99.90      -99.90      -99.90    
   3   -99.90      -99.90      -99.90      -99.90      -99.90      -99.90      -99.90      -99.90      -99.90      -99.90    
       -99.90      -99.90      -99.90      -99.90      -99.90      -99.90      -99.90      -99.90      -99.90      -99.90    
       -99.90      -99.90      -99.90      -99.90      -99.90      -99.90      -99.90      -99.90      -99.90      -99.90    
       -99.90      -99.90      -99.90      -99.90      -99.90      -99.90      -99.90      -99.90      -99.90      -99.90    
   4   -99.90      -99.90      -99.90      -99.90      -99.90      -99.90      -99.90      -99.90      -99.90      -99.90    
       -99.90      -99.90      -99.90      -99.90      -99.90      -99.90      -99.90      -99.90      -99.90      -99.90    
       -99.90      -99.90      -99.90      -99.90      -99.90      -99.90      -99.90      -99.90      -99.90      -99.90    
       -99.90      -99.90      -99.90      -99.90      -99.90      -99.90      -99.90      -99.90      -99.90      -99.90    
   5   -99.90      -99.90      -99.90      -99.90      -99.90      -99.90      -99.90      -99.90      -99.90      -99.90    
       -99.90      -99.90      -99.90      -99.90      -99.90      -99.90      -99.90      -99.90      -99.90      -99.90    
       -99.90      -99.90      -99.90      -99.90      -99.90      -99.90      -99.90      -99.90      -99.90      -99.90    
       -99.90      -99.90      -99.90      -99.90      -99.90      -99.90      -99.90      -99.90      -99.90      -99.90    
   6   -99.90      -99.90      -99.90      -99.90      -99.90      -99.90      -99.90      -99.90      -99.90      -99.90    
       -99.90      -99.90      -99.90      -99.90      -99.90      -99.90      -99.90      -99.90      -99.90      -99.90    
       -99.90      -99.90      -99.90      -99.90      -99.90      -99.90      -99.90      -99.90      -99.90      -99.90    
       -99.90      -99.90      -99.90      -99.90      -99.90      -99.90      -99.90      -99.90      -99.90      -99.90    
   7   -99.90      -99.90      -99.90      -99.90      -99.90      -99.90      -99.90      -99.90      -99.90      -99.90    
       -99.90      -99.90      -99.90      -99.90      -99.90      -99.90      -99.90      -99.90      -99.90      -99.90    
       -99.90      -99.90      -99.90      -99.90      -99.90      -99.90      -99.90      -99.90      -99.90      -99.90    
       -99.90      -99.90      -99.90      -99.90      -99.90      -99.90      -99.90      -99.90      -99.90      -99.90    
   8   -99.90      -99.90      -99.90      -99.90      -99.90      -99.90      -99.90      -99.90      -99.90      -99.90    
       -99.90      -99.90      -99.90      -99.90      -99.90      -99.90      -99.90      -99.90      -99.90      -99.90    
       -99.90      -99.90      -99.90      -99.90      -99.90      -99.90      -99.90      -99.90      -99.90      -99.90    
       -99.90      -99.90      -99.90      -99.90      -99.90      -99.90      -99.90      -99.90      -99.90      -99.90    
   9   -99.90      -99.90      -99.90      -99.90      -99.90      -99.90      -99.90      -99.90      -99.90      -99.90    
       -99.90      -99.90      -99.90      -99.90      -99.90      -99.90      -99.90      -99.90      -99.90      -99.90    
       -99.90      -99.90      -99.90      -99.90      -99.90      -99.90      -99.90      -99.90      -99.90      -99.90    
       -99.90      -99.90      -99.90      -99.90      -99.90      -99.90      -99.90      -99.90      -99.90      -99.90    
  10   -99.90      -99.90      -99.90      -99.90      -99.90      -99.90      -99.90      -99.90      -99.90      -99.90    
       -99.90      -99.90      -99.90      -99.90      -99.90      -99.90      -99.90      -99.90      -99.90      -99.90    
       -99.90      -99.90      -99.90      -99.90      -99.90      -99.90      -99.90      -99.90      -99.90      -99.90    
       -99.90      -99.90      -99.90      -99.90      -99.90      -99.90      -99.90      -99.90      -99.90      -99.90    
  11   -99.90      -99.90      -99.90      -99.90      -99.90      -99.90      -99.90      -99.90      -99.90      -99.90    
       -99.90      -99.90      -99.90      -99.90      -99.90      -99.90      -99.90      -99.90      -99.90      -99.90    
       -99.90      -99.90      -99.90      -99.90      -99.90      -99.90      -99.90      -99.90      -99.90      -99.90    
       -99.90      -99.90      -99.90      -99.90      -99.90      -99.90      -99.90      -99.90      -99.90      -99.90    
  12   -99.90      -99.90      -99.90      -99.90      -99.90      -99.90      -99.90      -99.90      -99.90      -99.90    
       -99.90      -99.90      -99.90      -99.90      -99.90      -99.90      -99.90      -99.90      -99.90      -99.90    
       -99.90      -99.90      -99.90      -99.90      -99.90      -99.90      -99.90      -99.90      -99.90      -99.90    
       -99.90      -99.90      -99.90      -99.90      -99.90      -99.90      -99.90      -99.90      -99.90      -99.90    
  13   -99.90      -99.90      -99.90      -99.90      -99.90      -99.90      -99.90      -99.90      -99.90      -99.90    
       -99.90      -99.90      -99.90      -99.90      -99.90      -99.90      -99.90      -99.90      -99.90      -99.90    
       -99.90      -99.90      -99.90      -99.90      -99.90      -99.90      -99.90      -99.90      -99.90      -99.90    
       -99.90      -99.90      -99.90      -99.90      -99.90      -99.90      -99.90      -99.90      -99.90      -99.90    
  14   -99.90      -99.90      -99.90      -99.90      -99.90      -99.90      -99.90      -99.90      -99.90      -99.90    
       -99.90      -99.90      -99.90      -99.90      -99.90      -99.90      -99.90      -99.90      -99.90      -99.90    
       -99.90      -99.90      -99.90      -99.90      -99.90      -99.90      -99.90      -99.90      -99.90      -99.90    
       -99.90      -99.90      -99.90      -99.90      -99.90      -99.90      -99.90      -99.90      -99.90      -99.90    
  15   -99.90      -99.90      -99.90      -99.90      -99.90      -99.90      -99.90      -99.90      -99.90      -99.90    
       -99.90      -99.90      -99.90      -99.90      -99.90      -99.90      -99.90      -99.90      -99.90      -99.90    
       -99.90      -99.90      -99.90      -99.90      -99.90      -99.90      -99.90      -99.90      -99.90      -99.90    
       -99.90      -99.90      -99.90      -99.90      -99.90      -99.90      -99.90      -99.90      -99.90      -99.90    
  16   -99.90      -99.90      -99.90      -99.90      -99.90      -99.90      -99.90      -99.90      -99.90      -99.90    
       -99.90      -99.90      -99.90      -99.90      -99.90      -99.90      -99.90      -99.90      -99.90      -99.90    
       -99.90      -99.90      -99.90      -99.90      -99.90      -99.90      -99.90      -99.90      -99.90      -99.90    
       -99.90      -99.90      -99.90      -99.90      -99.90      -99.90      -99.90      -99.90      -99.90      -99.90    
  17   -99.90      -99.90      -99.90      -99.90      -99.90      -99.90      -99.90      -99.90      -99.90      -99.90    
       -99.90      -99.90      -99.90      -99.90      -99.90      -99.90      -99.90      -99.90      -99.90      -99.90    
       -99.90      -99.90      -99.90      -99.90      -99.90      -99.90      -99.90      -99.90      -99.90      -99.90    
       -99.90      -99.90      -99.90      -99.90      -99.90      -99.90      -99.90      -99.90      -99.90      -99.90    
  18   -99.90      -99.90      -99.90      -99.90      -99.90      -99.90      -99.90      -99.90      -99.90      -99.90    
       -99.90      -99.90      -99.90      -99.90      -99.90      -99.90      -99.90      -99.90      -99.90      -99.90    
       -99.90      -99.90      -99.90      -99.90      -99.90      -99.90      -99.90      -99.90      -99.90      -99.90    
       -99.90      -99.90      -99.90      -99.90      -99.90      -99.90      -99.90      -99.90      -99.90      -99.90    
  19   -99.90      -99.90      -99.90      -99.90      -99.90      -99.90      -99.90      -99.90      -99.90      -99.90    
       -99.90      -99.90      -99.90      -99.90      -99.90      -99.90      -99.90      -99.90      -99.90      -99.90    
       -99.90      -99.90      -99.90      -99.90      -99.90      -99.90      -99.90      -99.90      -99.90      -99.90    
       -99.90      -99.90      -99.90      -99.90      -99.90      -99.90      -99.90      -99.90      -99.90      -99.90    
  20   -99.90      -99.90      -99.90      -99.90      -99.90      -99.90      -99.90      -99.90      -99.90      -99.90    
       -99.90      -99.90      -99.90      -99.90      -99.90      -99.90      -99.90      -99.90      -99.90      -99.90    
       -99.90      -99.90      -99.90      -99.90      -99.90      -99.90      -99.90      -99.90      -99.90      -99.90    
       -99.90      -99.90      -99.90      -99.90      -99.90      -99.90      -99.90      -99.90      -99.90      -99.90    
  21   -99.90      -99.90      -99.90      -99.90      -99.90      -99.90      -99.90      -99.90      -99.90      -99.90    
       -99.90      -99.90      -99.90      -99.90      -99.90      -99.90      -99.90      -99.90      -99.90      -99.90    
       -99.90      -99.90      -99.90      -99.90      -99.90      -99.90      -99.90      -99.90      -99.90      -99.90    
       -99.90      -99.90      -99.90      -99.90      -99.90      -99.90      -99.90      -99.90      -99.90      -99.90    
  22   -99.90      -99.90      -99.90      -99.90      -99.90      -99.90      -99.90      -99.90      -99.90      -99.90    
       -99.90      -99.90      -99.90      -99.90      -99.90      -99.90      -99.90      -99.90      -99.90      -99.90    
       -99.90      -99.90      -99.90      -99.90      -99.90      -99.90      -99.90      -99.90      -99.90      -99.90    
       -99.90      -99.90      -99.90      -99.90      -99.90      -99.90      -99.90      -99.90      -99.90      -99.90    
  23   -99.90      -99.90      -99.90      -99.90      -99.90      -99.90      -99.90      -99.90      -99.90      -99.90    
       -99.90      -99.90      -99.90      -99.90      -99.90      -99.90      -99.90      -99.90      -99.90      -99.90    
       -99.90      -99.90      -99.90      -99.90      -99.90      -99.90      -99.90      -99.90      -99.90      -99.90    
       -99.90      -99.90      -99.90      -99.90      -99.90      -99.90      -99.90      -99.90      -99.90      -99.90    
  24   -99.90      -99.90      -99.90      -99.90      -99.90      -99.90      -99.90      -99.90      -99.90      -99.90    
       -99.90      -99.90      -99.90      -99.90      -99.90      -99.90      -99.90      -99.90      -99.90      -99.90    
       -99.90      -99.90      -99.90      -99.90      -99.90      -99.90      -99.90      -99.90      -99.90      -99.90    
       -99.90      -99.90      -99.90      -99.90      -99.90      -99.90      -99.90      -99.90      -99.90      -99.90    
  25   -99.90      -99.90      -99.90      -99.90      -99.90      -99.90      -99.90      -99.90      -99.90      -99.90    
       -99.90      -99.90      -99.90      -99.90      -99.90      -99.90      -99.90      -99.90      -99.90      -99.90    
       -99.90      -99.90      -99.90      -99.90      -99.90      -99.90      -99.90      -99.90      -99.90      -99.90    
       -99.90      -99.90      -99.90      -99.90      -99.90      -99.90      -99.90      -99.90      -99.90      -99.90    
  26   -99.90      -99.90      -99.90      -99.90      -99.90      -99.90      -99.90      -99.90      -99.90      -99.90    
       -99.90      -99.90      -99.90      -99.90      -99.90      -99.90      -99.90      -99.90      -99.90      -99.90    
       -99.90      -99.90      -99.90      -99.90      -99.90      -99.90      -99.90      -99.90      -99.90      -99.90    
       -99.90      -99.90      -99.90      -99.90      -99.90      -99.90      -99.90      -99.90      -99.90      -99.90    
  27   -99.90      -99.90      -99.90      -99.90      -99.90      -99.90      -99.90      -99.90      -99.90      -99.90    
       -99.90      -99.90      -99.90      -99.90      -99.90      -99.90      -99.90      -99.90      -99.90      -99.90    
       -99.90      -99.90      -99.90      -99.90      -99.90      -99.90      -99.90      -99.90      -99.90      -99.90    
       -99.90      -99.90      -99.90      -99.90      -99.90      -99.90      -99.90      -99.90      -99.90      -99.90    
  28   -99.90      -99.90      -99.90      -99.90      -99.90      -99.90      -99.90      -99.90      -99.90      -99.90    
       -99.90      -99.90      -99.90      -99.90      -99.90      -99.90      -99.90      -99.90      -99.90      -99.90    
       -99.90      -99.90      -99.90      -99.90      -99.90      -99.90      -99.90      -99.90      -99.90      -99.90    
       -99.90      -99.90      -99.90      -99.90      -99.90      -99.90      -99.90      -99.90      -99.90      -99.90    
  29   -99.90      -99.90      -99.90      -99.90      -99.90      -99.90      -99.90      -99.90      -99.90      -99.90    
       -99.90      -99.90      -99.90      -99.90      -99.90      -99.90      -99.90      -99.90      -99.90      -99.90    
       -99.90      -99.90      -99.90      -99.90      -99.90      -99.90      -99.90      -99.90      -99.90      -99.90    
       -99.90      -99.90      -99.90      -99.90      -99.90      -99.90      -99.90      -99.90      -99.90      -99.90    
  30   -99.90      -99.90      -99.90      -99.90      -99.90      -99.90      -99.90      -99.90      -99.90      -99.90    
       -99.90      -99.90      -99.90      -99.90      -99.90      -99.90      -99.90      -99.90      -99.90      -99.90    
       -99.90      -99.90      -99.90      -99.90      -99.90      -99.90      -99.90      -99.90      -99.90      -99.90    
       -99.90      -99.90      -99.90      -99.90      -99.90      -99.90      -99.90      -99.90      -99.90      -99.90    
  31   -99.90      -99.90      -99.90      -99.90      -99.90      -99.90      -99.90      -99.90      -99.90      -99.90    
       -99.90      -99.90      -99.90      -99.90      -99.90      -99.90      -99.90      -99.90      -99.90      -99.90    
       -99.90      -99.90      -99.90      -99.90      -99.90      -99.90      -99.90      -99.90      -99.90      -99.90    
       -99.90      -99.90      -99.90      -99.90      -99.90      -99.90      -99.90      -99.90      -99.90      -99.90    
  32   -99.90      -99.90      -99.90      -99.90      -99.90      -99.90      -99.90      -99.90      -99.90      -99.90    
       -99.90      -99.90      -99.90      -99.90      -99.90      -99.90      -99.90      -99.90      -99.90      -99.90    
       -99.90      -99.90      -99.90      -99.90      -99.90      -99.90      -99.90      -99.90      -99.90      -99.90    
       -99.90      -99.90      -99.90      -99.90      -99.90      -99.90      -99.90      -99.90      -99.90      -99.90    
  33   -99.90      -99.90      -99.90      -99.90      -99.90      -99.90      -99.90      -99.90      -99.90      -99.90    
       -99.90      -99.90      -99.90      -99.90      -99.90      -99.90      -99.90      -99.90      -99.90      -99.90    
       -99.90      -99.90      -99.90      -99.90      -99.90      -99.90      -99.90      -99.90      -99.90      -99.90    
       -99.90      -99.90      -99.90      -99.90      -99.90      -99.90      -99.90      -99.90      -99.90      -99.90    
  34   -99.90      -99.90      -99.90      -99.90      -99.90      -99.90      -99.90      -99.90      -99.90      -99.90    
       -99.90      -99.90      -99.90      -99.90      -99.90      -99.90      -99.90      -99.90      -99.90      -99.90    
       -99.90      -99.90      -99.90      -99.90      -99.90      -99.90      -99.90      -99.90      -99.90      -99.90    
       -99.90      -99.90      -99.90      -99.90      -99.90      -99.90      -99.90      -99.90      -99.90      -99.90    
  35   -99.90      -99.90      -99.90      -99.90      -99.90      -99.90      -99.90      -99.90      -99.90      -99.90    
       -99.90      -99.90      -99.90      -99.90      -99.90      -99.90      -99.90      -99.90      -99.90      -99.90    
       -99.90      -99.90      -99.90      -99.90      -99.90      -99.90      -99.90      -99.90      -99.90      -99.90    
       -99.90      -99.90      -99.90      -99.90      -99.90      -99.90      -99.90      -99.90      -99.90      -99.90    
  36   -99.90      -99.90      -99.90      -99.90      -99.90      -99.90      -99.90      -99.90      -99.90      -99.90    
       -99.90      -99.90      -99.90      -99.90      -99.90      -99.90      -99.90      -99.90      -99.90      -99.90    
       -99.90      -99.90      -99.90      -99.90      -99.90      -99.90      -99.90      -99.90      -99.90      -99.90    
       -99.90      -99.90      -99.90      -99.90      -99.90      -99.90      -99.90      -99.90      -99.90      -99.90    
  37   -99.90      -99.90      -99.90      -99.90      -99.90      -99.90      -99.90      -99.90      -99.90      -99.90    
       -99.90      -99.90      -99.90      -99.90      -99.90      -99.90      -99.90      -99.90      -99.90      -99.90    
       -99.90      -99.90      -99.90      -99.90      -99.90      -99.90      -99.90      -99.90      -99.90      -99.90    
       -99.90      -99.90      -99.90      -99.90      -99.90      -99.90      -99.90      -99.90      -99.90      -99.90    
  38   -99.90      -99.90      -99.90      -99.90      -99.90      -99.90      -99.90      -99.90      -99.90      -99.90    
       -99.90      -99.90      -99.90      -99.90      -99.90      -99.90      -99.90      -99.90      -99.90      -99.90    
       -99.90      -99.90      -99.90      -99.90      -99.90      -99.90      -99.90      -99.90      -99.90      -99.90    
       -99.90      -99.90      -99.90      -99.90      -99.90      -99.90      -99.90      -99.90      -99.90      -99.90    
  39   -99.90      -99.90      -99.90      -99.90      -99.90      -99.90      -99.90      -99.90      -99.90      -99.90    
       -99.90      -99.90      -99.90      -99.90      -99.90      -99.90      -99.90      -99.90      -99.90      -99.90    
       -99.90      -99.90      -99.90      -99.90      -99.90      -99.90      -99.90      -99.90      -99.90      -99.90    
       -99.90      -99.90      -99.90      -99.90      -99.90      -99.90      -99.90      -99.90      -99.90      -99.90    
  40   -99.90      -99.90      -99.90      -99.90      -99.90      -99.90      -99.90      -99.90      -99.90      -99.90    
       -99.90      -99.90      -99.90      -99.90      -99.90      -99.90      -99.90      -99.90      -99.90      -99.90    
       -99.90      -99.90      -99.90      -99.90      -99.90      -99.90      -99.90      -99.90      -99.90      -99.90    
       -99.90      -99.90      -99.90      -99.90      -99.90      -99.90      -99.90      -99.90      -99.90      -99.90    
1
              HEAD IN LAYER   2 AT END OF TIME STEP  10 IN STRESS PERIOD    1
  ---------------------------------------------------------------------------

            1           2           3           4           5           6           7           8           9          10
           11          12          13          14          15          16          17          18          19          20
           21          22          23          24          25          26          27          28          29          30
           31          32          33          34          35          36          37          38          39          40
 ........................................................................................................................
   1   -99.90      -99.90      -99.90      -99.90      -99.90      -99.90      -99.90      -99.90      -99.90      -99.90    
       -99.90      -99.90      -99.90      -99.90      -99.90      -99.90      -99.90      -99.90      -99.90      -99.90    
       -99.90      -99.90      -99.90      -99.90      -99.90      -99.90      -99.90      -99.90      -99.90      -99.90    
       -99.90      -99.90      -99.90      -99.90      -99.90      -99.90      -99.90      -99.90      -99.90      -99.90    
   2   -99.90      -99.90      -99.90      -99.90      -99.90      -99.90      -99.90      -99.90      -99.90      -99.90    
       -99.90      -99.90      -99.90      -99.90      -99.90      -99.90      -99.90      -99.90      -99.90      -99.90    
       -99.90      -99.90      -99.90      -99.90      -99.90      -99.90      -99.90      -99.90      -99.90      -99.90    
       -99.90      -99.90      -99.90      -99.90      -99.90      -99.90      -99.90      -99.90      -99.90      -99.90    
   3   -99.90      -99.90      -99.90      -99.90      -99.90      -99.90      -99.90      -99.90      -99.90      -99.90    
       -99.90      -99.90      -99.90      -99.90      -99.90      -99.90      -99.90      -99.90      -99.90      -99.90    
       -99.90      -99.90      -99.90      -99.90      -99.90      -99.90      -99.90      -99.90      -99.90      -99.90    
       -99.90      -99.90      -99.90      -99.90      -99.90      -99.90      -99.90      -99.90      -99.90      -99.90    
   4   -99.90      -99.90      -99.90      -99.90      -99.90      -99.90      -99.90      -99.90      -99.90      -99.90    
       -99.90      -99.90      -99.90      -99.90      -99.90      -99.90      -99.90      -99.90      -99.90      -99.90    
       -99.90      -99.90      -99.90      -99.90      -99.90      -99.90      -99.90      -99.90      -99.90      -99.90    
       -99.90      -99.90      -99.90      -99.90      -99.90      -99.90      -99.90      -99.90      -99.90      -99.90    
   5   -99.90      -99.90      -99.90      -99.90      -99.90      -99.90      -99.90      -99.90      -99.90      -99.90    
       -99.90      -99.90      -99.90      -99.90      -99.90      -99.90      -99.90      -99.90      -99.90      -99.90    
       -99.90      -99.90      -99.90      -99.90      -99.90      -99.90      -99.90      -99.90      -99.90      -99.90    
       -99.90      -99.90      -99.90      -99.90      -99.90      -99.90      -99.90      -99.90      -99.90      -99.90    
   6   -99.90      -99.90      -99.90      -99.90      -99.90      -99.90      -99.90      -99.90      -99.90      -99.90    
       -99.90      -99.90      -99.90      -99.90      -99.90      -99.90      -99.90      -99.90      -99.90      -99.90    
       -99.90      -99.90      -99.90      -99.90      -99.90      -99.90      -99.90      -99.90      -99.90      -99.90    
       -99.90      -99.90      -99.90      -99.90      -99.90      -99.90      -99.90      -99.90      -99.90      -99.90    
   7   -99.90      -99.90      -99.90      -99.90      -99.90      -99.90      -99.90      -99.90      -99.90      -99.90    
       -99.90      -99.90      -99.90      -99.90      -99.90      -99.90      -99.90      -99.90      -99.90      -99.90    
       -99.90      -99.90      -99.90      -99.90      -99.90      -99.90      -99.90      -99.90      -99.90      -99.90    
       -99.90      -99.90      -99.90      -99.90      -99.90      -99.90      -99.90      -99.90      -99.90      -99.90    
   8   -99.90      -99.90      -99.90      -99.90      -99.90      -99.90      -99.90      -99.90      -99.90      -99.90    
       -99.90      -99.90      -99.90      -99.90      -99.90      -99.90      -99.90      -99.90      -99.90      -99.90    
       -99.90      -99.90      -99.90      -99.90      -99.90      -99.90      -99.90      -99.90      -99.90      -99.90    
       -99.90      -99.90      -99.90      -99.90      -99.90      -99.90      -99.90      -99.90      -99.90      -99.90    
   9   -99.90      -99.90      -99.90      -99.90      -99.90      -99.90      -99.90      -99.90      -99.90      -99.90    
       -99.90      -99.90      -99.90      -99.90      -99.90      -99.90      -99.90      -99.90      -99.90      -99.90    
       -99.90      -99.90      -99.90      -99.90      -99.90      -99.90      -99.90      -99.90      -99.90      -99.90    
       -99.90      -99.90      -99.90      -99.90      -99.90      -99.90      -99.90      -99.90      -99.90      -99.90    
  10   -99.90      -99.90      -99.90      -99.90      -99.90      -99.90      -99.90      -99.90      -99.90      -99.90    
       -99.90      -99.90      -99.90      -99.90      -99.90      -99.90      -99.90      -99.90      -99.90      -99.90    
       -99.90      -99.90      -99.90      -99.90      -99.90      -99.90      -99.90      -99.90      -99.90      -99.90    
       -99.90      -99.90      -99.90      -99.90      -99.90      -99.90      -99.90      -99.90      -99.90      -99.90    
  11   -99.90      -99.90      -99.90      -99.90      -99.90      -99.90      -99.90      -99.90      -99.90      -99.90    
       -99.90      -99.90      -99.90      -99.90      -99.90      -99.90      -99.90      -99.90      -99.90      -99.90    
       -99.90      -99.90      -99.90      -99.90      -99.90      -99.90      -99.90      -99.90      -99.90      -99.90    
       -99.90      -99.90      -99.90      -99.90      -99.90      -99.90      -99.90      -99.90      -99.90      -99.90    
  12   -99.90      -99.90      -99.90      -99.90      -99.90      -99.90      -99.90      -99.90      -99.90      -99.90    
       -99.90      -99.90      -99.90      -99.90      -99.90      -99.90      -99.90      -99.90      -99.90      -99.90    
       -99.90      -99.90      -99.90      -99.90      -99.90      -99.90      -99.90      -99.90      -99.90      -99.90    
       -99.90      -99.90      -99.90      -99.90      -99.90      -99.90      -99.90      -99.90      -99.90      -99.90    
  13   -99.90      -99.90      -99.90      -99.90      -99.90      -99.90      -99.90      -99.90      -99.90      -99.90    
       -99.90      -99.90      -99.90      -99.90      -99.90      -99.90      -99.90      -99.90      -99.90      -99.90    
       -99.90      -99.90      -99.90      -99.90      -99.90      -99.90      -99.90      -99.90      -99.90      -99.90    
       -99.90      -99.90      -99.90      -99.90      -99.90      -99.90      -99.90      -99.90      -99.90      -99.90    
  14   -99.90      -99.90      -99.90      -99.90      -99.90      -99.90      -99.90      -99.90      -99.90      -99.90    
       -99.90      -99.90      -99.90      -99.90      -99.90      -99.90      -99.90      -99.90      -99.90      -99.90    
       -99.90      -99.90      -99.90      -99.90      -99.90      -99.90      -99.90      -99.90      -99.90      -99.90    
       -99.90      -99.90      -99.90      -99.90      -99.90      -99.90      -99.90      -99.90      -99.90      -99.90    
  15   -99.90      -99.90      -99.90      -99.90      -99.90      -99.90      -99.90      -99.90      -99.90      -99.90    
       -99.90      -99.90      -99.90      -99.90      -99.90      -99.90      -99.90      -99.90      -99.90      -99.90    
       -99.90      -99.90      -99.90      -99.90      -99.90      -99.90      -99.90      -99.90      -99.90      -99.90    
       -99.90      -99.90      -99.90      -99.90      -99.90      -99.90      -99.90      -99.90      -99.90      -99.90    
  16   -99.90      -99.90      -99.90      -99.90      -99.90      -99.90      -99.90      -99.90      -99.90      -99.90    
       -99.90      -99.90      -99.90      -99.90      -99.90      -99.90      -99.90      -99.90      -99.90      -99.90    
       -99.90      -99.90      -99.90      -99.90      -99.90      -99.90      -99.90      -99.90      -99.90      -99.90    
       -99.90      -99.90      -99.90      -99.90      -99.90      -99.90      -99.90      -99.90      -99.90      -99.90    
  17   -99.90      -99.90      -99.90      -99.90      -99.90      -99.90      -99.90      -99.90      -99.90      -99.90    
       -99.90      -99.90      -99.90      -99.90      -99.90      -99.90      -99.90      -99.90      -99.90      -99.90    
       -99.90      -99.90      -99.90      -99.90      -99.90      -99.90      -99.90      -99.90      -99.90      -99.90    
       -99.90      -99.90      -99.90      -99.90      -99.90      -99.90      -99.90      -99.90      -99.90      -99.90    
  18   -99.90      -99.90      -99.90      -99.90      -99.90      -99.90      -99.90      -99.90      -99.90      -99.90    
       -99.90      -99.90      -99.90      -99.90      -99.90      -99.90      -99.90      -99.90      -99.90      -99.90    
       -99.90      -99.90      -99.90      -99.90      -99.90      -99.90      -99.90      -99.90      -99.90      -99.90    
       -99.90      -99.90      -99.90      -99.90      -99.90      -99.90      -99.90      -99.90      -99.90      -99.90    
  19   -99.90      -99.90      -99.90      -99.90      -99.90      -99.90      -99.90      -99.90      -99.90      -99.90    
       -99.90      -99.90      -99.90      -99.90      -99.90      -99.90      -99.90      -99.90      -99.90      -99.90    
       -99.90      -99.90      -99.90      -99.90      -99.90      -99.90      -99.90      -99.90      -99.90      -99.90    
       -99.90      -99.90      -99.90      -99.90      -99.90      -99.90      -99.90      -99.90      -99.90      -99.90    
  20   -99.90      -99.90      -99.90      -99.90      -99.90      -99.90      -99.90      -99.90      -99.90      -99.90    
       -99.90      -99.90      -99.90      -99.90      -99.90      -99.90      -99.90      -99.90      -99.90      -99.90    
       -99.90      -99.90      -99.90      -99.90      -99.90      -99.90      -99.90      -99.90      -99.90      -99.90    
       -99.90      -99.90      -99.90      -99.90      -99.90      -99.90      -99.90      -99.90      -99.90      -99.90    
  21   -99.90      -99.90      -99.90      -99.90      -99.90      -99.90      -99.90      -99.90      -99.90      -99.90    
       -99.90      -99.90      -99.90      -99.90      -99.90      -99.90      -99.90      -99.90      -99.90      -99.90    
       -99.90      -99.90      -99.90      -99.90      -99.90      -99.90      -99.90      -99.90      -99.90      -99.90    
       -99.90      -99.90      -99.90      -99.90      -99.90      -99.90      -99.90      -99.90      -99.90      -99.90    
  22   -99.90      -99.90      -99.90      -99.90      -99.90      -99.90      -99.90      -99.90      -99.90      -99.90    
       -99.90      -99.90      -99.90      -99.90      -99.90      -99.90      -99.90      -99.90      -99.90      -99.90    
       -99.90      -99.90      -99.90      -99.90      -99.90      -99.90      -99.90      -99.90      -99.90      -99.90    
       -99.90      -99.90      -99.90      -99.90      -99.90      -99.90      -99.90      -99.90      -99.90      -99.90    
  23   -99.90      -99.90      -99.90      -99.90      -99.90      -99.90      -99.90      -99.90      -99.90      -99.90    
       -99.90      -99.90      -99.90      -99.90      -99.90      -99.90      -99.90      -99.90      -99.90      -99.90    
       -99.90      -99.90      -99.90      -99.90      -99.90      -99.90      -99.90      -99.90      -99.90      -99.90    
       -99.90      -99.90      -99.90      -99.90      -99.90      -99.90      -99.90      -99.90      -99.90      -99.90    
  24   -99.90      -99.90      -99.90      -99.90      -99.90      -99.90      -99.90      -99.90      -99.90      -99.90    
       -99.90      -99.90      -99.90      -99.90      -99.90      -99.90      -99.90      -99.90      -99.90      -99.90    
       -99.90      -99.90      -99.90      -99.90      -99.90      -99.90      -99.90      -99.90      -99.90      -99.90    
       -99.90      -99.90      -99.90      -99.90      -99.90      -99.90      -99.90      -99.90      -99.90      -99.90    
  25   -99.90      -99.90      -99.90      -99.90      -99.90      -99.90      -99.90      -99.90      -99.90      -99.90    
       -99.90      -99.90      -99.90      -99.90      -99.90      -99.90      -99.90      -99.90      -99.90      -99.90    
       -99.90      -99.90      -99.90      -99.90      -99.90      -99.90      -99.90      -99.90      -99.90      -99.90    
       -99.90      -99.90      -99.90      -99.90      -99.90      -99.90      -99.90      -99.90      -99.90      -99.90    
  26   -99.90      -99.90      -99.90      -99.90      -99.90      -99.90      -99.90      -99.90      -99.90      -99.90    
       -99.90      -99.90      -99.90      -99.90      -99.90      -99.90      -99.90      -99.90      -99.90      -99.90    
       -99.90      -99.90      -99.90      -99.90      -99.90      -99.90      -99.90      -99.90      -99.90      -99.90    
       -99.90      -99.90      -99.90      -99.90      -99.90      -99.90      -99.90      -99.90      -99.90      -99.90    
  27   -99.90      -99.90      -99.90      -99.90      -99.90      -99.90      -99.90      -99.90      -99.90      -99.90    
       -99.90      -99.90      -99.90      -99.90      -99.90      -99.90      -99.90      -99.90      -99.90      -99.90    
       -99.90      -99.90      -99.90      -99.90      -99.90      -99.90      -99.90      -99.90      -99.90      -99.90    
       -99.90      -99.90      -99.90      -99.90      -99.90      -99.90      -99.90      -99.90      -99.90      -99.90    
  28   -99.90      -99.90      -99.90      -99.90      -99.90      -99.90      -99.90      -99.90      -99.90      -99.90    
       -99.90      -99.90      -99.90      -99.90      -99.90      -99.90      -99.90      -99.90      -99.90      -99.90    
       -99.90      -99.90      -99.90      -99.90      -99.90      -99.90      -99.90      -99.90      -99.90      -99.90    
       -99.90      -99.90      -99.90      -99.90      -99.90      -99.90      -99.90      -99.90      -99.90      -99.90    
  29   -99.90      -99.90      -99.90      -99.90      -99.90      -99.90      -99.90      -99.90      -99.90      -99.90    
       -99.90      -99.90      -99.90      -99.90      -99.90      -99.90      -99.90      -99.90      -99.90      -99.90    
       -99.90      -99.90      -99.90      -99.90      -99.90      -99.90      -99.90      -99.90      -99.90      -99.90    
       -99.90      -99.90      -99.90      -99.90      -99.90      -99.90      -99.90      -99.90      -99.90      -99.90    
  30   -99.90      -99.90      -99.90      -99.90      -99.90      -99.90      -99.90      -99.90      -99.90      -99.90    
       -99.90      -99.90      -99.90      -99.90      -99.90      -99.90      -99.90      -99.90      -99.90      -99.90    
       -99.90      -99.90      -99.90      -99.90      -99.90      -99.90      -99.90      -99.90      -99.90      -99.90    
       -99.90      -99.90      -99.90      -99.90      -99.90      -99.90      -99.90      -99.90      -99.90      -99.90    
  31   -99.90      -99.90      -99.90      -99.90      -99.90      -99.90      -99.90      -99.90      -99.90      -99.90    
       -99.90      -99.90      -99.90      -99.90      -99.90      -99.90      -99.90      -99.90      -99.90      -99.90    
       -99.90      -99.90      -99.90      -99.90      -99.90      -99.90      -99.90      -99.90      -99.90      -99.90    
       -99.90      -99.90      -99.90      -99.90      -99.90      -99.90      -99.90      -99.90      -99.90      -99.90    
  32   -99.90      -99.90      -99.90      -99.90      -99.90      -99.90      -99.90      -99.90      -99.90      -99.90    
       -99.90      -99.90      -99.90      -99.90      -99.90      -99.90      -99.90      -99.90      -99.90      -99.90    
       -99.90      -99.90      -99.90      -99.90      -99.90      -99.90      -99.90      -99.90      -99.90      -99.90    
       -99.90      -99.90      -99.90      -99.90      -99.90      -99.90      -99.90      -99.90      -99.90      -99.90    
  33   -99.90      -99.90      -99.90      -99.90      -99.90      -99.90      -99.90      -99.90      -99.90      -99.90    
       -99.90      -99.90      -99.90      -99.90      -99.90      -99.90      -99.90      -99.90      -99.90      -99.90    
       -99.90      -99.90      -99.90      -99.90      -99.90      -99.90      -99.90      -99.90      -99.90      -99.90    
       -99.90      -99.90      -99.90      -99.90      -99.90      -99.90      -99.90      -99.90      -99.90      -99.90    
  34   -99.90      -99.90      -99.90      -99.90      -99.90      -99.90      -99.90      -99.90      -99.90      -99.90    
       -99.90      -99.90      -99.90      -99.90      -99.90      -99.90      -99.90      -99.90      -99.90      -99.90    
       -99.90      -99.90      -99.90      -99.90      -99.90      -99.90      -99.90      -99.90      -99.90      -99.90    
       -99.90      -99.90      -99.90      -99.90      -99.90      -99.90      -99.90      -99.90      -99.90      -99.90    
  35   -99.90      -99.90      -99.90      -99.90      -99.90      -99.90      -99.90      -99.90      -99.90      -99.90    
       -99.90      -99.90      -99.90      -99.90      -99.90      -99.90      -99.90      -99.90      -99.90      -99.90    
       -99.90      -99.90      -99.90      -99.90      -99.90      -99.90      -99.90      -99.90      -99.90      -99.90    
       -99.90      -99.90      -99.90      -99.90      -99.90      -99.90      -99.90      -99.90      -99.90      -99.90    
  36   -99.90      -99.90      -99.90      -99.90      -99.90      -99.90      -99.90      -99.90      -99.90      -99.90    
       -99.90      -99.90      -99.90      -99.90      -99.90      -99.90      -99.90      -99.90      -99.90      -99.90    
       -99.90      -99.90      -99.90      -99.90      -99.90      -99.90      -99.90      -99.90      -99.90      -99.90    
       -99.90      -99.90      -99.90      -99.90      -99.90      -99.90      -99.90      -99.90      -99.90      -99.90    
  37   -99.90      -99.90      -99.90      -99.90      -99.90      -99.90      -99.90      -99.90      -99.90      -99.90    
       -99.90      -99.90      -99.90      -99.90      -99.90      -99.90      -99.90      -99.90      -99.90      -99.90    
       -99.90      -99.90      -99.90      -99.90      -99.90      -99.90      -99.90      -99.90      -99.90      -99.90    
       -99.90      -99.90      -99.90      -99.90      -99.90      -99.90      -99.90      -99.90      -99.90      -99.90    
  38   -99.90      -99.90      -99.90      -99.90      -99.90      -99.90      -99.90      -99.90      -99.90      -99.90    
       -99.90      -99.90      -99.90      -99.90      -99.90      -99.90      -99.90      -99.90      -99.90      -99.90    
       -99.90      -99.90      -99.90      -99.90      -99.90      -99.90      -99.90      -99.90      -99.90      -99.90    
       -99.90      -99.90      -99.90      -99.90      -99.90      -99.90      -99.90      -99.90      -99.90      -99.90    
  39   -99.90      -99.90      -99.90      -99.90      -99.90      -99.90      -99.90      -99.90      -99.90      -99.90    
       -99.90      -99.90      -99.90      -99.90      -99.90      -99.90      -99.90      -99.90      -99.90      -99.90    
       -99.90      -99.90      -99.90      -99.90      -99.90      -99.90      -99.90      -99.90      -99.90      -99.90    
       -99.90      -99.90      -99.90      -99.90      -99.90      -99.90      -99.90      -99.90      -99.90      -99.90    
  40   -99.90      -99.90      -99.90      -99.90      -99.90      -99.90      -99.90      -99.90      -99.90      -99.90    
       -99.90      -99.90      -99.90      -99.90      -99.90      -99.90      -99.90      -99.90      -99.90      -99.90    
       -99.90      -99.90      -99.90      -99.90      -99.90      -99.90      -99.90      -99.90      -99.90      -99.90    
       -99.90      -99.90      -99.90      -99.90      -99.90      -99.90      -99.90      -99.90      -99.90      -99.90    
1
              HEAD IN LAYER   3 AT END OF TIME STEP  10 IN STRESS PERIOD    1
  ---------------------------------------------------------------------------

            1           2           3           4           5           6           7           8           9          10
           11          12          13          14          15          16          17          18          19          20
           21          22          23          24          25          26          27          28          29          30
           31          32          33          34          35          36          37          38          39          40
 ........................................................................................................................
   1   -99.90      -99.90      -99.90      -99.90      -99.90      -99.90      -99.90      -99.90      -99.90      -99.90    
       -99.90      -99.90      -99.90      -99.90      -99.90      -99.90      -99.90      -99.90      -99.90      -99.90    
       -99.90      -99.90      -99.90      -99.90      -99.90      -99.90      -99.90      -99.90      -99.90      -99.90    
       -99.90      -99.90      -99.90      -99.90      -99.90      -99.90      -99.90      -99.90      -99.90      -99.90    
   2   -99.90      -99.90      -99.90      -99.90      -99.90      -99.90      -99.90      -99.90      -99.90      -99.90    
       -99.90      -99.90      -99.90      -99.90      -99.90      -99.90      -99.90      -99.90      -99.90      -99.90    
       -99.90      -99.90      -99.90      -99.90      -99.90      -99.90      -99.90      -99.90      -99.90      -99.90    
       -99.90      -99.90      -99.90      -99.90      -99.90      -99.90      -99.90      -99.90      -99.90      -99.90    
   3   -99.90      -99.90      -99.90      -99.90      -99.90      -99.90      -99.90      -99.90      -99.90      -99.90    
       -99.90      -99.90      -99.90      -99.90      -99.90      -99.90      -99.90      -99.90      -99.90      -99.90    
       -99.90      -99.90      -99.90      -99.90      -99.90      -99.90      -99.90      -99.90      -99.90      -99.90    
       -99.90      -99.90      -99.90      -99.90      -99.90      -99.90      -99.90      -99.90      -99.90      -99.90    
   4   -99.90      -99.90      -99.90      -99.90      -99.90      -99.90      -99.90      -99.90      -99.90      -99.90    
       -99.90      -99.90      -99.90      -99.90      -99.90      -99.90      -99.90      -99.90      -99.90      -99.90    
       -99.90      -99.90      -99.90      -99.90      -99.90      -99.90      -99.90      -99.90      -99.90      -99.90    
       -99.90      -99.90      -99.90      -99.90      -99.90      -99.90      -99.90      -99.90      -99.90      -99.90    
   5   -99.90      -99.90      -99.90      -99.90      -99.90      -99.90      -99.90      -99.90      -99.90      -99.90    
       -99.90      -99.90      -99.90      -99.90      -99.90      -99.90      -99.90      -99.90      -99.90      -99.90    
       -99.90      -99.90      -99.90      -99.90      -99.90      -99.90      -99.90      -99.90      -99.90      -99.90    
       -99.90      -99.90      -99.90      -99.90      -99.90      -99.90      -99.90      -99.90      -99.90      -99.90    
   6   -99.90      -99.90      -99.90      -99.90      -99.90      -99.90      -99.90      -99.90      -99.90      -99.90    
       -99.90      -99.90      -99.90      -99.90      -99.90      -99.90      -99.90      -99.90      -99.90      -99.90    
       -99.90      -99.90      -99.90      -99.90      -99.90      -99.90      -99.90      -99.90      -99.90      -99.90    
       -99.90      -99.90      -99.90      -99.90      -99.90      -99.90      -99.90      -99.90      -99.90      -99.90    
   7   -99.90      -99.90      -99.90      -99.90      -99.90      -99.90      -99.90      -99.90      -99.90      -99.90    
       -99.90      -99.90      -99.90      -99.90      -99.90      -99.90      -99.90      -99.90      -99.90      -99.90    
       -99.90      -99.90      -99.90      -99.90      -99.90      -99.90      -99.90      -99.90      -99.90      -99.90    
       -99.90      -99.90      -99.90      -99.90      -99.90      -99.90      -99.90      -99.90      -99.90      -99.90    
   8   -99.90      -99.90      -99.90      -99.90      -99.90      -99.90      -99.90      -99.90      -99.90      -99.90    
       -99.90      -99.90      -99.90      -99.90      -99.90      -99.90      -99.90      -99.90      -99.90      -99.90    
       -99.90      -99.90      -99.90      -99.90      -99.90      -99.90      -99.90      -99.90      -99.90      -99.90    
       -99.90      -99.90      -99.90      -99.90      -99.90      -99.90      -99.90      -99.90      -99.90      -99.90    
   9   -99.90      -99.90      -99.90      -99.90      -99.90      -99.90      -99.90      -99.90      -99.90      -99.90    
       -99.90      -99.90      -99.90      -99.90      -99.90      -99.90      -99.90      -99.90      -99.90      -99.90    
       -99.90      -99.90      -99.90      -99.90      -99.90      -99.90      -99.90      -99.90      -99.90      -99.90    
       -99.90      -99.90      -99.90      -99.90      -99.90      -99.90      -99.90      -99.90      -99.90      -99.90    
  10   -99.90      -99.90      -99.90      -99.90      -99.90      -99.90      -99.90      -99.90      -99.90      -99.90    
       -99.90      -99.90      -99.90      -99.90      -99.90      -99.90      -99.90      -99.90      -99.90      -99.90    
       -99.90      -99.90      -99.90      -99.90      -99.90      -99.90      -99.90      -99.90      -99.90      -99.90    
       -99.90      -99.90      -99.90      -99.90      -99.90      -99.90      -99.90      -99.90      -99.90      -99.90    
  11   -99.90      -99.90      -99.90      -99.90      -99.90      -99.90      -99.90      -99.90      -99.90      -99.90    
       -99.90      -99.90      -99.90      -99.90      -99.90      -99.90      -99.90      -99.90      -99.90      -99.90    
       -99.90      -99.90      -99.90      -99.90      -99.90      -99.90      -99.90      -99.90      -99.90      -99.90    
       -99.90      -99.90      -99.90      -99.90      -99.90      -99.90      -99.90      -99.90      -99.90      -99.90    
  12   -99.90      -99.90      -99.90      -99.90      -99.90      -99.90      -99.90      -99.90      -99.90      -99.90    
       -99.90      -99.90      -99.90      -99.90      -99.90      -99.90      -99.90      -99.90      -99.90      -99.90    
       -99.90      -99.90      -99.90      -99.90      -99.90      -99.90      -99.90      -99.90      -99.90      -99.90    
       -99.90      -99.90      -99.90      -99.90      -99.90      -99.90      -99.90      -99.90      -99.90      -99.90    
  13   -99.90      -99.90      -99.90      -99.90      -99.90      -99.90      -99.90      -99.90      -99.90      -99.90    
       -99.90      -99.90      -99.90      -99.90      -99.90      -99.90      -99.90      -99.90      -99.90      -99.90    
       -99.90      -99.90      -99.90      -99.90      -99.90      -99.90      -99.90      -99.90      -99.90      -99.90    
       -99.90      -99.90      -99.90      -99.90      -99.90      -99.90      -99.90      -99.90      -99.90      -99.90    
  14   -99.90      -99.90      -99.90      -99.90      -99.90      -99.90      -99.90      -99.90      -99.90      -99.90    
       -99.90      -99.90      -99.90      -99.90      -99.90      -99.90      -99.90      -99.90      -99.90      -99.90    
       -99.90      -99.90      -99.90      -99.90      -99.90      -99.90      -99.90      -99.90      -99.90      -99.90    
       -99.90      -99.90      -99.90      -99.90      -99.90      -99.90      -99.90      -99.90      -99.90      -99.90    
  15   -99.90      -99.90      -99.90      -99.90      -99.90      -99.90      -99.90      -99.90      -99.90      -99.90    
       -99.90      -99.90      -99.90      -99.90      -99.90      -99.90      -99.90      -99.90      -99.90      -99.90    
       -99.90      -99.90      -99.90      -99.90      -99.90      -99.90      -99.90      -99.90      -99.90      -99.90    
       -99.90      -99.90      -99.90      -99.90      -99.90      -99.90      -99.90      -99.90      -99.90      -99.90    
  16   -99.90      -99.90      -99.90      -99.90      -99.90      -99.90      -99.90      -99.90      -99.90      -99.90    
       -99.90      -99.90      -99.90      -99.90      -99.90      -99.90      -99.90      -99.90      -99.90      -99.90    
       -99.90      -99.90      -99.90      -99.90      -99.90      -99.90      -99.90      -99.90      -99.90      -99.90    
       -99.90      -99.90      -99.90      -99.90      -99.90      -99.90      -99.90      -99.90      -99.90      -99.90    
  17   -99.90      -99.90      -99.90      -99.90      -99.90      -99.90      -99.90      -99.90      -99.90      -99.90    
       -99.90      -99.90      -99.90      -99.90      -99.90      -99.90      -99.90      -99.90      -99.90      -99.90    
       -99.90      -99.90      -99.90      -99.90      -99.90      -99.90      -99.90      -99.90      -99.90      -99.90    
       -99.90      -99.90      -99.90      -99.90      -99.90      -99.90      -99.90      -99.90      -99.90      -99.90    
  18   -99.90      -99.90      -99.90      -99.90      -99.90      -99.90      -99.90      -99.90      -99.90      -99.90    
       -99.90      -99.90      -99.90      -99.90      -99.90      -99.90      -99.90      -99.90      -99.90      -99.90    
       -99.90      -99.90      -99.90      -99.90      -99.90      -99.90      -99.90      -99.90      -99.90      -99.90    
       -99.90      -99.90      -99.90      -99.90      -99.90      -99.90      -99.90      -99.90      -99.90      -99.90    
  19   -99.90      -99.90      -99.90      -99.90      -99.90      -99.90      -99.90      -99.90      -99.90      -99.90    
       -99.90      -99.90      -99.90      -99.90      -99.90      -99.90      -99.90      -99.90      -99.90      -99.90    
       -99.90      -99.90      -99.90      -99.90      -99.90      -99.90      -99.90      -99.90      -99.90      -99.90    
       -99.90      -99.90      -99.90      -99.90      -99.90      -99.90      -99.90      -99.90      -99.90      -99.90    
  20   -99.90      -99.90      -99.90      -99.90      -99.90      -99.90      -99.90      -99.90      -99.90      -99.90    
       -99.90      -99.90      -99.90      -99.90      -99.90      -99.90      -99.90      -99.90      -99.90      -99.90    
       -99.90      -99.90      -99.90      -99.90      -99.90      -99.90      -99.90      -99.90      -99.90      -99.90    
       -99.90      -99.90      -99.90      -99.90      -99.90      -99.90      -99.90      -99.90      -99.90      -99.90    
  21   -99.90      -99.90      -99.90      -99.90      -99.90      -99.90      -99.90      -99.90      -99.90      -99.90    
       -99.90      -99.90      -99.90      -99.90      -99.90      -99.90      -99.90      -99.90      -99.90      -99.90    
       -99.90      -99.90      -99.90      -99.90      -99.90      -99.90      -99.90      -99.90      -99.90      -99.90    
       -99.90      -99.90      -99.90      -99.90      -99.90      -99.90      -99.90      -99.90      -99.90      -99.90    
  22   -99.90      -99.90      -99.90      -99.90      -99.90      -99.90      -99.90      -99.90      -99.90      -99.90    
       -99.90      -99.90      -99.90      -99.90      -99.90      -99.90      -99.90      -99.90      -99.90      -99.90    
       -99.90      -99.90      -99.90      -99.90      -99.90      -99.90      -99.90      -99.90      -99.90      -99.90    
       -99.90      -99.90      -99.90      -99.90      -99.90      -99.90      -99.90      -99.90      -99.90      -99.90    
  23   -99.90      -99.90      -99.90      -99.90      -99.90      -99.90      -99.90      -99.90      -99.90      -99.90    
       -99.90      -99.90      -99.90      -99.90      -99.90      -99.90      -99.90      -99.90      -99.90      -99.90    
       -99.90      -99.90      -99.90      -99.90      -99.90      -99.90      -99.90      -99.90      -99.90      -99.90    
       -99.90      -99.90      -99.90      -99.90      -99.90      -99.90      -99.90      -99.90      -99.90      -99.90    
  24   -99.90      -99.90      -99.90      -99.90      -99.90      -99.90      -99.90      -99.90      -99.90      -99.90    
       -99.90      -99.90      -99.90      -99.90      -99.90      -99.90      -99.90      -99.90      -99.90      -99.90    
       -99.90      -99.90      -99.90      -99.90      -99.90      -99.90      -99.90      -99.90      -99.90      -99.90    
       -99.90      -99.90      -99.90      -99.90      -99.90      -99.90      -99.90      -99.90      -99.90      -99.90    
  25   -99.90      -99.90      -99.90      -99.90      -99.90      -99.90      -99.90      -99.90      -99.90      -99.90    
       -99.90      -99.90      -99.90      -99.90      -99.90      -99.90      -99.90      -99.90      -99.90      -99.90    
       -99.90      -99.90      -99.90      -99.90      -99.90      -99.90      -99.90      -99.90      -99.90      -99.90    
       -99.90      -99.90      -99.90      -99.90      -99.90      -99.90      -99.90      -99.90      -99.90      -99.90    
  26   -99.90      -99.90      -99.90      -99.90      -99.90      -99.90      -99.90      -99.90      -99.90      -99.90    
       -99.90      -99.90      -99.90      -99.90      -99.90      -99.90      -99.90      -99.90      -99.90      -99.90    
       -99.90      -99.90      -99.90      -99.90      -99.90      -99.90      -99.90      -99.90      -99.90      -99.90    
       -99.90      -99.90      -99.90      -99.90      -99.90      -99.90      -99.90      -99.90      -99.90      -99.90    
  27   -99.90      -99.90      -99.90      -99.90      -99.90      -99.90      -99.90      -99.90      -99.90      -99.90    
       -99.90      -99.90      -99.90      -99.90      -99.90      -99.90      -99.90      -99.90      -99.90      -99.90    
       -99.90      -99.90      -99.90      -99.90      -99.90      -99.90      -99.90      -99.90      -99.90      -99.90    
       -99.90      -99.90      -99.90      -99.90      -99.90      -99.90      -99.90      -99.90      -99.90      -99.90    
  28   -99.90      -99.90      -99.90      -99.90      -99.90      -99.90      -99.90      -99.90      -99.90      -99.90    
       -99.90      -99.90      -99.90      -99.90      -99.90      -99.90      -99.90      -99.90      -99.90      -99.90    
       -99.90      -99.90      -99.90      -99.90      -99.90      -99.90      -99.90      -99.90      -99.90      -99.90    
       -99.90      -99.90      -99.90      -99.90      -99.90      -99.90      -99.90      -99.90      -99.90      -99.90    
  29   -99.90      -99.90      -99.90      -99.90      -99.90      -99.90      -99.90      -99.90      -99.90      -99.90    
       -99.90      -99.90      -99.90      -99.90      -99.90      -99.90      -99.90      -99.90      -99.90      -99.90    
       -99.90      -99.90      -99.90      -99.90      -99.90      -99.90      -99.90      -99.90      -99.90      -99.90    
       -99.90      -99.90      -99.90      -99.90      -99.90      -99.90      -99.90      -99.90      -99.90      -99.90    
  30   -99.90      -99.90      -99.90      -99.90      -99.90      -99.90      -99.90      -99.90      -99.90      -99.90    
       -99.90      -99.90      -99.90      -99.90      -99.90      -99.90      -99.90      -99.90      -99.90      -99.90    
       -99.90      -99.90      -99.90      -99.90      -99.90      -99.90      -99.90      -99.90      -99.90      -99.90    
       -99.90      -99.90      -99.90      -99.90      -99.90      -99.90      -99.90      -99.90      -99.90      -99.90    
  31   -99.90      -99.90      -99.90      -99.90      -99.90      -99.90      -99.90      -99.90      -99.90      -99.90    
       -99.90      -99.90      -99.90      -99.90      -99.90      -99.90      -99.90      -99.90      -99.90      -99.90    
       -99.90      -99.90      -99.90      -99.90      -99.90      -99.90      -99.90      -99.90      -99.90      -99.90    
       -99.90      -99.90      -99.90      -99.90      -99.90      -99.90      -99.90      -99.90      -99.90      -99.90    
  32   -99.90      -99.90      -99.90      -99.90      -99.90      -99.90      -99.90      -99.90      -99.90      -99.90    
       -99.90      -99.90      -99.90      -99.90      -99.90      -99.90      -99.90      -99.90      -99.90      -99.90    
       -99.90      -99.90      -99.90      -99.90      -99.90      -99.90      -99.90      -99.90      -99.90      -99.90    
       -99.90      -99.90      -99.90      -99.90      -99.90      -99.90      -99.90      -99.90      -99.90      -99.90    
  33   -99.90      -99.90      -99.90      -99.90      -99.90      -99.90      -99.90      -99.90      -99.90      -99.90    
       -99.90      -99.90      -99.90      -99.90      -99.90      -99.90      -99.90      -99.90      -99.90      -99.90    
       -99.90      -99.90      -99.90      -99.90      -99.90      -99.90      -99.90      -99.90      -99.90      -99.90    
       -99.90      -99.90      -99.90      -99.90      -99.90      -99.90      -99.90      -99.90      -99.90      -99.90    
  34   -99.90      -99.90      -99.90      -99.90      -99.90      -99.90      -99.90      -99.90      -99.90      -99.90    
       -99.90      -99.90      -99.90      -99.90      -99.90      -99.90      -99.90      -99.90      -99.90      -99.90    
       -99.90      -99.90      -99.90      -99.90      -99.90      -99.90      -99.90      -99.90      -99.90      -99.90    
       -99.90      -99.90      -99.90      -99.90      -99.90      -99.90      -99.90      -99.90      -99.90      -99.90    
  35   -99.90      -99.90      -99.90      -99.90      -99.90      -99.90      -99.90      -99.90      -99.90      -99.90    
       -99.90      -99.90      -99.90      -99.90      -99.90      -99.90      -99.90      -99.90      -99.90      -99.90    
       -99.90      -99.90      -99.90      -99.90      -99.90      -99.90      -99.90      -99.90      -99.90      -99.90    
       -99.90      -99.90      -99.90      -99.90      -99.90      -99.90      -99.90      -99.90      -99.90      -99.90    
  36   -99.90      -99.90      -99.90      -99.90      -99.90      -99.90      -99.90      -99.90      -99.90      -99.90    
       -99.90      -99.90      -99.90      -99.90      -99.90      -99.90      -99.90      -99.90      -99.90      -99.90    
       -99.90      -99.90      -99.90      -99.90      -99.90      -99.90      -99.90      -99.90      -99.90      -99.90    
       -99.90      -99.90      -99.90      -99.90      -99.90      -99.90      -99.90      -99.90      -99.90      -99.90    
  37   -99.90      -99.90      -99.90      -99.90      -99.90      -99.90      -99.90      -99.90      -99.90      -99.90    
       -99.90      -99.90      -99.90      -99.90      -99.90      -99.90      -99.90      -99.90      -99.90      -99.90    
       -99.90      -99.90      -99.90      -99.90      -99.90      -99.90      -99.90      -99.90      -99.90      -99.90    
       -99.90      -99.90      -99.90      -99.90      -99.90      -99.90      -99.90      -99.90      -99.90      -99.90    
  38   -99.90      -99.90      -99.90      -99.90      -99.90      -99.90      -99.90      -99.90      -99.90      -99.90    
       -99.90      -99.90      -99.90      -99.90      -99.90      -99.90      -99.90      -99.90      -99.90      -99.90    
       -99.90      -99.90      -99.90      -99.90      -99.90      -99.90      -99.90      -99.90      -99.90      -99.90    
       -99.90      -99.90      -99.90      -99.90      -99.90      -99.90      -99.90      -99.90      -99.90      -99.90    
  39   -99.90      -99.90      -99.90      -99.90      -99.90      -99.90      -99.90      -99.90      -99.90      -99.90    
       -99.90      -99.90      -99.90      -99.90      -99.90      -99.90      -99.90      -99.90      -99.90      -99.90    
       -99.90      -99.90      -99.90      -99.90      -99.90      -99.90      -99.90      -99.90      -99.90      -99.90    
       -99.90      -99.90      -99.90      -99.90      -99.90      -99.90      -99.90      -99.90      -99.90      -99.90    
  40   -99.90      -99.90      -99.90      -99.90      -99.90      -99.90      -99.90      -99.90      -99.90      -99.90    
       -99.90      -99.90      -99.90      -99.90      -99.90      -99.90      -99.90      -99.90      -99.90      -99.90    
       -99.90      -99.90      -99.90      -99.90      -99.90      -99.90      -99.90      -99.90      -99.90      -99.90    
       -99.90      -99.90      -99.90      -99.90      -99.90      -99.90      -99.90      -99.90      -99.90      -99.90    
1
              HEAD IN LAYER   4 AT END OF TIME STEP  10 IN STRESS PERIOD    1
  ---------------------------------------------------------------------------

            1           2           3           4           5           6           7           8           9          10
           11          12          13          14          15          16          17          18          19          20
           21          22          23          24          25          26          27          28          29          30
           31          32          33          34          35          36          37          38          39          40
 ........................................................................................................................
   1   -99.90      -99.90      -99.90      -99.90      -99.90      -99.90      -99.90      -99.90      -99.90      -99.90    
       -99.90      -99.90      -99.90      -99.90      -99.90      -99.90      -99.90      -99.90      -99.90      -99.90    
       -99.90      -99.90      -99.90      -99.90      -99.90      -99.90      -99.90      -99.90      -99.90      -99.90    
       -99.90      -99.90      -99.90      -99.90      -99.90      -99.90      -99.90      -99.90      -99.90      -99.90    
   2   -99.90      -99.90      -99.90      -99.90      -99.90      -99.90      -99.90      -99.90      -99.90      -99.90    
       -99.90      -99.90      -99.90      -99.90      -99.90      -99.90      -99.90      -99.90      -99.90      -99.90    
       -99.90      -99.90      -99.90      -99.90      -99.90      -99.90      -99.90      -99.90      -99.90      -99.90    
       -99.90      -99.90      -99.90      -99.90      -99.90      -99.90      -99.90      -99.90      -99.90      -99.90    
   3   -99.90      -99.90      -99.90      -99.90      -99.90      -99.90      -99.90      -99.90      -99.90      -99.90    
       -99.90      -99.90      -99.90      -99.90      -99.90      -99.90      -99.90      -99.90      -99.90      -99.90    
       -99.90      -99.90      -99.90      -99.90      -99.90      -99.90      -99.90      -99.90      -99.90      -99.90    
       -99.90      -99.90      -99.90      -99.90      -99.90      -99.90      -99.90      -99.90      -99.90      -99.90    
   4   -99.90      -99.90      -99.90      -99.90      -99.90      -99.90      -99.90      -99.90      -99.90      -99.90    
       -99.90      -99.90      -99.90      -99.90      -99.90      -99.90      -99.90      -99.90      -99.90      -99.90    
       -99.90      -99.90      -99.90      -99.90      -99.90      -99.90      -99.90      -99.90      -99.90      -99.90    
       -99.90      -99.90      -99.90      -99.90      -99.90      -99.90      -99.90      -99.90      -99.90      -99.90    
   5   -99.90      -99.90      -99.90      -99.90      -99.90      -99.90      -99.90      -99.90      -99.90      -99.90    
       -99.90      -99.90      -99.90      -99.90      -99.90      -99.90      -99.90      -99.90      -99.90      -99.90    
       -99.90      -99.90      -99.90      -99.90      -99.90      -99.90      -99.90      -99.90      -99.90      -99.90    
       -99.90      -99.90      -99.90      -99.90      -99.90      -99.90      -99.90      -99.90      -99.90      -99.90    
   6   -99.90      -99.90      -99.90      -99.90      -99.90      -99.90      -99.90      -99.90      -99.90      -99.90    
       -99.90      -99.90      -99.90      -99.90      -99.90      -99.90      -99.90      -99.90      -99.90      -99.90    
       -99.90      -99.90      -99.90      -99.90      -99.90      -99.90      -99.90      -99.90      -99.90      -99.90    
       -99.90      -99.90      -99.90      -99.90      -99.90      -99.90      -99.90      -99.90      -99.90      -99.90    
   7   -99.90      -99.90      -99.90      -99.90      -99.90      -99.90      -99.90      -99.90      -99.90      -99.90    
       -99.90      -99.90      -99.90      -99.90      -99.90      -99.90      -99.90      -99.90      -99.90      -99.90    
       -99.90      -99.90      -99.90      -99.90      -99.90      -99.90      -99.90      -99.90      -99.90      -99.90    
       -99.90      -99.90      -99.90      -99.90      -99.90      -99.90      -99.90      -99.90      -99.90      -99.90    
   8   -99.90      -99.90      -99.90      -99.90      -99.90      -99.90      -99.90      -99.90      -99.90      -99.90    
       -99.90      -99.90      -99.90      -99.90      -99.90      -99.90      -99.90      -99.90      -99.90      -99.90    
       -99.90      -99.90      -99.90      -99.90      -99.90      -99.90      -99.90      -99.90      -99.90      -99.90    
       -99.90      -99.90      -99.90      -99.90      -99.90      -99.90      -99.90      -99.90      -99.90      -99.90    
   9   -99.90      -99.90      -99.90      -99.90      -99.90      -99.90      -99.90      -99.90      -99.90      -99.90    
       -99.90      -99.90      -99.90      -99.90      -99.90      -99.90      -99.90      -99.90      -99.90      -99.90    
       -99.90      -99.90      -99.90      -99.90      -99.90      -99.90      -99.90      -99.90      -99.90      -99.90    
       -99.90      -99.90      -99.90      -99.90      -99.90      -99.90      -99.90      -99.90      -99.90      -99.90    
  10   -99.90      -99.90      -99.90      -99.90      -99.90      -99.90      -99.90      -99.90      -99.90      -99.90    
       -99.90      -99.90      -99.90      -99.90      -99.90      -99.90      -99.90      -99.90      -99.90      -99.90    
       -99.90      -99.90      -99.90      -99.90      -99.90      -99.90      -99.90      -99.90      -99.90      -99.90    
       -99.90      -99.90      -99.90      -99.90      -99.90      -99.90      -99.90      -99.90      -99.90      -99.90    
  11   -99.90      -99.90      -99.90      -99.90      -99.90      -99.90      -99.90      -99.90      -99.90      -99.90    
       -99.90      -99.90      -99.90      -99.90      -99.90      -99.90      -99.90      -99.90      -99.90      -99.90    
       -99.90      -99.90      -99.90      -99.90      -99.90      -99.90      -99.90      -99.90      -99.90      -99.90    
       -99.90      -99.90      -99.90      -99.90      -99.90      -99.90      -99.90      -99.90      -99.90      -99.90    
  12   -99.90      -99.90      -99.90      -99.90      -99.90      -99.90      -99.90      -99.90      -99.90      -99.90    
       -99.90      -99.90      -99.90      -99.90      -99.90      -99.90      -99.90      -99.90      -99.90      -99.90    
       -99.90      -99.90      -99.90      -99.90      -99.90      -99.90      -99.90      -99.90      -99.90      -99.90    
       -99.90      -99.90      -99.90      -99.90      -99.90      -99.90      -99.90      -99.90      -99.90      -99.90    
  13   -99.90      -99.90      -99.90      -99.90      -99.90      -99.90      -99.90      -99.90      -99.90      -99.90    
       -99.90      -99.90      -99.90      -99.90      -99.90      -99.90      -99.90      -99.90      -99.90      -99.90    
       -99.90      -99.90      -99.90      -99.90      -99.90      -99.90      -99.90      -99.90      -99.90      -99.90    
       -99.90      -99.90      -99.90      -99.90      -99.90      -99.90      -99.90      -99.90      -99.90      -99.90    
  14   -99.90      -99.90      -99.90      -99.90      -99.90      -99.90      -99.90      -99.90      -99.90      -99.90    
       -99.90      -99.90      -99.90      -99.90      -99.90      -99.90      -99.90      -99.90      -99.90      -99.90    
       -99.90      -99.90      -99.90      -99.90      -99.90      -99.90      -99.90      -99.90      -99.90      -99.90    
       -99.90      -99.90      -99.90      -99.90      -99.90      -99.90      -99.90      -99.90      -99.90      -99.90    
  15   -99.90      -99.90      -99.90      -99.90      -99.90      -99.90      -99.90      -99.90      -99.90      -99.90    
       -99.90      -99.90      -99.90      -99.90      -99.90      -99.90      -99.90      -99.90      -99.90      -99.90    
       -99.90      -99.90      -99.90      -99.90      -99.90      -99.90      -99.90      -99.90      -99.90      -99.90    
       -99.90      -99.90      -99.90      -99.90      -99.90      -99.90      -99.90      -99.90      -99.90      -99.90    
  16   -99.90      -99.90      -99.90      -99.90      -99.90      -99.90      -99.90      -99.90      -99.90      -99.90    
       -99.90      -99.90      -99.90      -99.90      -99.90      -99.90      -99.90      -99.90      -99.90      -99.90    
       -99.90      -99.90      -99.90      -99.90      -99.90      -99.90      -99.90      -99.90      -99.90      -99.90    
       -99.90      -99.90      -99.90      -99.90      -99.90      -99.90      -99.90      -99.90      -99.90      -99.90    
  17   -99.90      -99.90      -99.90      -99.90      -99.90      -99.90      -99.90      -99.90      -99.90      -99.90    
       -99.90      -99.90      -99.90      -99.90      -99.90      -99.90      -99.90      -99.90      -99.90      -99.90    
       -99.90      -99.90      -99.90      -99.90      -99.90      -99.90      -99.90      -99.90      -99.90      -99.90    
       -99.90      -99.90      -99.90      -99.90      -99.90      -99.90      -99.90      -99.90      -99.90      -99.90    
  18   -99.90      -99.90      -99.90      -99.90      -99.90      -99.90      -99.90      -99.90      -99.90      -99.90    
       -99.90      -99.90      -99.90      -99.90      -99.90      -99.90      -99.90      -99.90      -99.90      -99.90    
       -99.90      -99.90      -99.90      -99.90      -99.90      -99.90      -99.90      -99.90      -99.90      -99.90    
       -99.90      -99.90      -99.90      -99.90      -99.90      -99.90      -99.90      -99.90      -99.90      -99.90    
  19   -99.90      -99.90      -99.90      -99.90      -99.90      -99.90      -99.90      -99.90      -99.90      -99.90    
       -99.90      -99.90      -99.90      -99.90      -99.90      -99.90      -99.90      -99.90      -99.90      -99.90    
       -99.90      -99.90      -99.90      -99.90      -99.90      -99.90      -99.90      -99.90      -99.90      -99.90    
       -99.90      -99.90      -99.90      -99.90      -99.90      -99.90      -99.90      -99.90      -99.90      -99.90    
  20   -99.90      -99.90      -99.90      -99.90      -99.90      -99.90      -99.90      -99.90      -99.90      -99.90    
       -99.90      -99.90      -99.90      -99.90      -99.90      -99.90      -99.90      -99.90      -99.90      -99.90    
       -99.90      -99.90      -99.90      -99.90      -99.90      -99.90      -99.90      -99.90      -99.90      -99.90    
       -99.90      -99.90      -99.90      -99.90      -99.90      -99.90      -99.90      -99.90      -99.90      -99.90    
  21   -99.90      -99.90      -99.90      -99.90      -99.90      -99.90      -99.90      -99.90      -99.90      -99.90    
       -99.90      -99.90      -99.90      -99.90      -99.90      -99.90      -99.90      -99.90      -99.90      -99.90    
       -99.90      -99.90      -99.90      -99.90      -99.90      -99.90      -99.90      -99.90      -99.90      -99.90    
       -99.90      -99.90      -99.90      -99.90      -99.90      -99.90      -99.90      -99.90      -99.90      -99.90    
  22   -99.90      -99.90      -99.90      -99.90      -99.90      -99.90      -99.90      -99.90      -99.90      -99.90    
       -99.90      -99.90      -99.90      -99.90      -99.90      -99.90      -99.90      -99.90      -99.90      -99.90    
       -99.90      -99.90      -99.90      -99.90      -99.90      -99.90      -99.90      -99.90      -99.90      -99.90    
       -99.90      -99.90      -99.90      -99.90      -99.90      -99.90      -99.90      -99.90      -99.90      -99.90    
  23   -99.90      -99.90      -99.90      -99.90      -99.90      -99.90      -99.90      -99.90      -99.90      -99.90    
       -99.90      -99.90      -99.90      -99.90      -99.90      -99.90      -99.90      -99.90      -99.90      -99.90    
       -99.90      -99.90      -99.90      -99.90      -99.90      -99.90      -99.90      -99.90      -99.90      -99.90    
       -99.90      -99.90      -99.90      -99.90      -99.90      -99.90      -99.90      -99.90      -99.90      -99.90    
  24   -99.90      -99.90      -99.90      -99.90      -99.90      -99.90      -99.90      -99.90      -99.90      -99.90    
       -99.90      -99.90      -99.90      -99.90      -99.90      -99.90      -99.90      -99.90      -99.90      -99.90    
       -99.90      -99.90      -99.90      -99.90      -99.90      -99.90      -99.90      -99.90      -99.90      -99.90    
       -99.90      -99.90      -99.90      -99.90      -99.90      -99.90      -99.90      -99.90      -99.90      -99.90    
  25   -99.90      -99.90      -99.90      -99.90      -99.90      -99.90      -99.90      -99.90      -99.90      -99.90    
       -99.90      -99.90      -99.90      -99.90      -99.90      -99.90      -99.90      -99.90      -99.90      -99.90    
       -99.90      -99.90      -99.90      -99.90      -99.90      -99.90      -99.90      -99.90      -99.90      -99.90    
       -99.90      -99.90      -99.90      -99.90      -99.90      -99.90      -99.90      -99.90      -99.90      -99.90    
  26   -99.90      -99.90      -99.90      -99.90      -99.90      -99.90      -99.90      -99.90      -99.90      -99.90    
       -99.90      -99.90      -99.90      -99.90      -99.90      -99.90      -99.90      -99.90      -99.90      -99.90    
       -99.90      -99.90      -99.90      -99.90      -99.90      -99.90      -99.90      -99.90      -99.90      -99.90    
       -99.90      -99.90      -99.90      -99.90      -99.90      -99.90      -99.90      -99.90      -99.90      -99.90    
  27   -99.90      -99.90      -99.90      -99.90      -99.90      -99.90      -99.90      -99.90      -99.90      -99.90    
       -99.90      -99.90      -99.90      -99.90      -99.90      -99.90      -99.90      -99.90      -99.90      -99.90    
       -99.90      -99.90      -99.90      -99.90      -99.90      -99.90      -99.90      -99.90      -99.90      -99.90    
       -99.90      -99.90      -99.90      -99.90      -99.90      -99.90      -99.90      -99.90      -99.90      -99.90    
  28   -99.90      -99.90      -99.90      -99.90      -99.90      -99.90      -99.90      -99.90      -99.90      -99.90    
       -99.90      -99.90      -99.90      -99.90      -99.90      -99.90      -99.90      -99.90      -99.90      -99.90    
       -99.90      -99.90      -99.90      -99.90      -99.90      -99.90      -99.90      -99.90      -99.90      -99.90    
       -99.90      -99.90      -99.90      -99.90      -99.90      -99.90      -99.90      -99.90      -99.90      -99.90    
  29   -99.90      -99.90      -99.90      -99.90      -99.90      -99.90      -99.90      -99.90      -99.90      -99.90    
       -99.90      -99.90      -99.90      -99.90      -99.90      -99.90      -99.90      -99.90      -99.90      -99.90    
       -99.90      -99.90      -99.90      -99.90      -99.90      -99.90      -99.90      -99.90      -99.90      -99.90    
       -99.90      -99.90      -99.90      -99.90      -99.90      -99.90      -99.90      -99.90      -99.90      -99.90    
  30   -99.90      -99.90      -99.90      -99.90      -99.90      -99.90      -99.90      -99.90      -99.90      -99.90    
       -99.90      -99.90      -99.90      -99.90      -99.90      -99.90      -99.90      -99.90      -99.90      -99.90    
       -99.90      -99.90      -99.90      -99.90      -99.90      -99.90      -99.90      -99.90      -99.90      -99.90    
       -99.90      -99.90      -99.90      -99.90      -99.90      -99.90      -99.90      -99.90      -99.90      -99.90    
  31   -99.90      -99.90      -99.90      -99.90      -99.90      -99.90      -99.90      -99.90      -99.90      -99.90    
       -99.90      -99.90      -99.90      -99.90      -99.90      -99.90      -99.90      -99.90      -99.90      -99.90    
       -99.90      -99.90      -99.90      -99.90      -99.90      -99.90      -99.90      -99.90      -99.90      -99.90    
       -99.90      -99.90      -99.90      -99.90      -99.90      -99.90      -99.90      -99.90      -99.90      -99.90    
  32   -99.90      -99.90      -99.90      -99.90      -99.90      -99.90      -99.90      -99.90      -99.90      -99.90    
       -99.90      -99.90      -99.90      -99.90      -99.90      -99.90      -99.90      -99.90      -99.90      -99.90    
       -99.90      -99.90      -99.90      -99.90      -99.90      -99.90      -99.90      -99.90      -99.90      -99.90    
       -99.90      -99.90      -99.90      -99.90      -99.90      -99.90      -99.90      -99.90      -99.90      -99.90    
  33   -99.90      -99.90      -99.90      -99.90      -99.90      -99.90      -99.90      -99.90      -99.90      -99.90    
       -99.90      -99.90      -99.90      -99.90      -99.90      -99.90      -99.90      -99.90      -99.90      -99.90    
       -99.90      -99.90      -99.90      -99.90      -99.90      -99.90      -99.90      -99.90      -99.90      -99.90    
       -99.90      -99.90      -99.90      -99.90      -99.90      -99.90      -99.90      -99.90      -99.90      -99.90    
  34   -99.90      -99.90      -99.90      -99.90      -99.90      -99.90      -99.90      -99.90      -99.90      -99.90    
       -99.90      -99.90      -99.90      -99.90      -99.90      -99.90      -99.90      -99.90      -99.90      -99.90    
       -99.90      -99.90      -99.90      -99.90      -99.90      -99.90      -99.90      -99.90      -99.90      -99.90    
       -99.90      -99.90      -99.90      -99.90      -99.90      -99.90      -99.90      -99.90      -99.90      -99.90    
  35   -99.90      -99.90      -99.90      -99.90      -99.90      -99.90      -99.90      -99.90      -99.90      -99.90    
       -99.90      -99.90      -99.90      -99.90      -99.90      -99.90      -99.90      -99.90      -99.90      -99.90    
       -99.90      -99.90      -99.90      -99.90      -99.90      -99.90      -99.90      -99.90      -99.90      -99.90    
       -99.90      -99.90      -99.90      -99.90      -99.90      -99.90      -99.90      -99.90      -99.90      -99.90    
  36   -99.90      -99.90      -99.90      -99.90      -99.90      -99.90      -99.90      -99.90      -99.90      -99.90    
       -99.90      -99.90      -99.90      -99.90      -99.90      -99.90      -99.90      -99.90      -99.90      -99.90    
       -99.90      -99.90      -99.90      -99.90      -99.90      -99.90      -99.90      -99.90      -99.90      -99.90    
       -99.90      -99.90      -99.90      -99.90      -99.90      -99.90      -99.90      -99.90      -99.90      -99.90    
  37   -99.90      -99.90      -99.90      -99.90      -99.90      -99.90      -99.90      -99.90      -99.90      -99.90    
       -99.90      -99.90      -99.90      -99.90      -99.90      -99.90      -99.90      -99.90      -99.90      -99.90    
       -99.90      -99.90      -99.90      -99.90      -99.90      -99.90      -99.90      -99.90      -99.90      -99.90    
       -99.90      -99.90      -99.90      -99.90      -99.90      -99.90      -99.90      -99.90      -99.90      -99.90    
  38   -99.90      -99.90      -99.90      -99.90      -99.90      -99.90      -99.90      -99.90      -99.90      -99.90    
       -99.90      -99.90      -99.90      -99.90      -99.90      -99.90      -99.90      -99.90      -99.90      -99.90    
       -99.90      -99.90      -99.90      -99.90      -99.90      -99.90      -99.90      -99.90      -99.90      -99.90    
       -99.90      -99.90      -99.90      -99.90      -99.90      -99.90      -99.90      -99.90      -99.90      -99.90    
  39   -99.90      -99.90      -99.90      -99.90      -99.90      -99.90      -99.90      -99.90      -99.90      -99.90    
       -99.90      -99.90      -99.90      -99.90      -99.90      -99.90      -99.90      -99.90      -99.90      -99.90    
       -99.90      -99.90      -99.90      -99.90      -99.90      -99.90      -99.90      -99.90      -99.90      -99.90    
       -99.90      -99.90      -99.90      -99.90      -99.90      -99.90      -99.90      -99.90      -99.90      -99.90    
  40   -99.90      -99.90      -99.90      -99.90      -99.90      -99.90      -99.90      -99.90      -99.90      -99.90    
       -99.90      -99.90      -99.90      -99.90      -99.90      -99.90      -99.90      -99.90      -99.90      -99.90    
       -99.90      -99.90      -99.90      -99.90      -99.90      -99.90      -99.90      -99.90      -99.90      -99.90    
       -99.90      -99.90      -99.90      -99.90      -99.90      -99.90      -99.90      -99.90      -99.90      -99.90    
1
              HEAD IN LAYER   5 AT END OF TIME STEP  10 IN STRESS PERIOD    1
  ---------------------------------------------------------------------------

            1           2           3           4           5           6           7           8           9          10
           11          12          13          14          15          16          17          18          19          20
           21          22          23          24          25          26          27          28          29          30
           31          32          33          34          35          36          37          38          39          40
 ........................................................................................................................
   1   -99.90      -99.90      -99.90      -99.90      -99.90      -99.90      -99.90      -99.90      -99.90      -99.90    
       -99.90      -99.90      -99.90      -99.90      -99.90      -99.90      -99.90      -99.90      -99.90      -99.90    
       -99.90      -99.90      -99.90      -99.90      -99.90      -99.90      -99.90      -99.90      -99.90      -99.90    
       -99.90      -99.90      -99.90      -99.90      -99.90      -99.90      -99.90      -99.90      -99.90      -99.90    
   2   -99.90      -99.90      -99.90      -99.90      -99.90      -99.90      -99.90      -99.90      -99.90      -99.90    
       -99.90      -99.90      -99.90      -99.90      -99.90      -99.90      -99.90      -99.90      -99.90      -99.90    
       -99.90      -99.90      -99.90      -99.90      -99.90      -99.90      -99.90      -99.90      -99.90      -99.90    
       -99.90      -99.90      -99.90      -99.90      -99.90      -99.90      -99.90      -99.90      -99.90      -99.90    
   3   -99.90      -99.90      -99.90      -99.90      -99.90      -99.90      -99.90      -99.90      -99.90      -99.90    
       -99.90      -99.90      -99.90      -99.90      -99.90      -99.90      -99.90      -99.90      -99.90      -99.90    
       -99.90      -99.90      -99.90      -99.90      -99.90      -99.90      -99.90      -99.90      -99.90      -99.90    
       -99.90      -99.90      -99.90      -99.90      -99.90      -99.90      -99.90      -99.90      -99.90      -99.90    
   4   -99.90      -99.90      -99.90      -99.90      -99.90      -99.90      -99.90      -99.90      -99.90      -99.90    
       -99.90      -99.90      -99.90      -99.90      -99.90      -99.90      -99.90      -99.90      -99.90      -99.90    
       -99.90      -99.90      -99.90      -99.90      -99.90      -99.90      -99.90      -99.90      -99.90      -99.90    
       -99.90      -99.90      -99.90      -99.90      -99.90      -99.90      -99.90      -99.90      -99.90      -99.90    
   5   -99.90      -99.90      -99.90      -99.90      -99.90      -99.90      -99.90      -99.90      -99.90      -99.90    
       -99.90      -99.90      -99.90      -99.90      -99.90      -99.90      -99.90      -99.90      -99.90      -99.90    
       -99.90      -99.90      -99.90      -99.90      -99.90      -99.90      -99.90      -99.90      -99.90      -99.90    
       -99.90      -99.90      -99.90      -99.90      -99.90      -99.90      -99.90      -99.90      -99.90      -99.90    
   6   -99.90      -99.90      -99.90      -99.90      -99.90      -99.90      -99.90      -99.90      -99.90      -99.90    
       -99.90      -99.90      -99.90      -99.90      -99.90      -99.90      -99.90      -99.90      -99.90      -99.90    
       -99.90      -99.90      -99.90      -99.90      -99.90      -99.90      -99.90      -99.90      -99.90      -99.90    
       -99.90      -99.90      -99.90      -99.90      -99.90      -99.90      -99.90      -99.90      -99.90      -99.90    
   7   -99.90      -99.90      -99.90      -99.90      -99.90      -99.90      -99.90      -99.90      -99.90      -99.90    
       -99.90      -99.90      -99.90      -99.90      -99.90      -99.90      -99.90      -99.90      -99.90      -99.90    
       -99.90      -99.90      -99.90      -99.90      -99.90      -99.90      -99.90      -99.90      -99.90      -99.90    
       -99.90      -99.90      -99.90      -99.90      -99.90      -99.90      -99.90      -99.90      -99.90      -99.90    
   8   -99.90      -99.90      -99.90      -99.90      -99.90      -99.90      -99.90      -99.90      -99.90      -99.90    
       -99.90      -99.90      -99.90      -99.90      -99.90      -99.90      -99.90      -99.90      -99.90      -99.90    
       -99.90      -99.90      -99.90      -99.90      -99.90      -99.90      -99.90      -99.90      -99.90      -99.90    
       -99.90      -99.90      -99.90      -99.90      -99.90      -99.90      -99.90      -99.90      -99.90      -99.90    
   9   -99.90      -99.90      -99.90      -99.90      -99.90      -99.90      -99.90      -99.90      -99.90      -99.90    
       -99.90      -99.90      -99.90      -99.90      -99.90      -99.90      -99.90      -99.90      -99.90      -99.90    
       -99.90      -99.90      -99.90      -99.90      -99.90      -99.90      -99.90      -99.90      -99.90      -99.90    
       -99.90      -99.90      -99.90      -99.90      -99.90      -99.90      -99.90      -99.90      -99.90      -99.90    
  10   -99.90      -99.90      -99.90      -99.90      -99.90      -99.90      -99.90      -99.90      -99.90      -99.90    
       -99.90      -99.90      -99.90      -99.90      -99.90      -99.90      -99.90      -99.90      -99.90      -99.90    
       -99.90      -99.90      -99.90      -99.90      -99.90      -99.90      -99.90      -99.90      -99.90      -99.90    
       -99.90      -99.90      -99.90      -99.90      -99.90      -99.90      -99.90      -99.90      -99.90      -99.90    
  11   -99.90      -99.90      -99.90      -99.90      -99.90      -99.90      -99.90      -99.90      -99.90      -99.90    
       -99.90      -99.90      -99.90      -99.90      -99.90      -99.90      -99.90      -99.90      -99.90      -99.90    
       -99.90      -99.90      -99.90      -99.90      -99.90      -99.90      -99.90      -99.90      -99.90      -99.90    
       -99.90      -99.90      -99.90      -99.90      -99.90      -99.90      -99.90      -99.90      -99.90      -99.90    
  12   -99.90      -99.90      -99.90      -99.90      -99.90      -99.90      -99.90      -99.90      -99.90      -99.90    
       -99.90      -99.90      -99.90      -99.90      -99.90      -99.90      -99.90      -99.90      -99.90      -99.90    
       -99.90      -99.90      -99.90      -99.90      -99.90      -99.90      -99.90      -99.90      -99.90      -99.90    
       -99.90      -99.90      -99.90      -99.90      -99.90      -99.90      -99.90      -99.90      -99.90      -99.90    
  13   -99.90      -99.90      -99.90      -99.90      -99.90      -99.90      -99.90      -99.90      -99.90      -99.90    
       -99.90      -99.90      -99.90      -99.90      -99.90      -99.90      -99.90      -99.90      -99.90      -99.90    
       -99.90      -99.90      -99.90      -99.90      -99.90      -99.90      -99.90      -99.90      -99.90      -99.90    
       -99.90      -99.90      -99.90      -99.90      -99.90      -99.90      -99.90      -99.90      -99.90      -99.90    
  14   -99.90      -99.90      -99.90      -99.90      -99.90      -99.90      -99.90      -99.90      -99.90      -99.90    
       -99.90      -99.90      -99.90      -99.90      -99.90      -99.90      -99.90      -99.90      -99.90      -99.90    
       -99.90      -99.90      -99.90      -99.90      -99.90      -99.90      -99.90      -99.90      -99.90      -99.90    
       -99.90      -99.90      -99.90      -99.90      -99.90      -99.90      -99.90      -99.90      -99.90      -99.90    
  15   -99.90      -99.90      -99.90      -99.90      -99.90      -99.90      -99.90      -99.90      -99.90      -99.90    
       -99.90      -99.90      -99.90      -99.90      -99.90      -99.90      -99.90      -99.90      -99.90      -99.90    
       -99.90      -99.90      -99.90      -99.90      -99.90      -99.90      -99.90      -99.90      -99.90      -99.90    
       -99.90      -99.90      -99.90      -99.90      -99.90      -99.90      -99.90      -99.90      -99.90      -99.90    
  16   -99.90      -99.90      -99.90      -99.90      -99.90      -99.90      -99.90      -99.90      -99.90      -99.90    
       -99.90      -99.90      -99.90      -99.90      -99.90      -99.90      -99.90      -99.90      -99.90      -99.90    
       -99.90      -99.90      -99.90      -99.90      -99.90      -99.90      -99.90      -99.90      -99.90      -99.90    
       -99.90      -99.90      -99.90      -99.90      -99.90      -99.90      -99.90      -99.90      -99.90      -99.90    
  17   -99.90      -99.90      -99.90      -99.90      -99.90      -99.90      -99.90      -99.90      -99.90      -99.90    
       -99.90      -99.90      -99.90      -99.90      -99.90      -99.90      -99.90      -99.90      -99.90      -99.90    
       -99.90      -99.90      -99.90      -99.90      -99.90      -99.90      -99.90      -99.90      -99.90      -99.90    
       -99.90      -99.90      -99.90      -99.90      -99.90      -99.90      -99.90      -99.90      -99.90      -99.90    
  18   -99.90      -99.90      -99.90      -99.90      -99.90      -99.90      -99.90      -99.90      -99.90      -99.90    
       -99.90      -99.90      -99.90      -99.90      -99.90      -99.90      -99.90      -99.90      -99.90      -99.90    
       -99.90      -99.90      -99.90      -99.90      -99.90      -99.90      -99.90      -99.90      -99.90      -99.90    
       -99.90      -99.90      -99.90      -99.90      -99.90      -99.90      -99.90      -99.90      -99.90      -99.90    
  19   -99.90      -99.90      -99.90      -99.90      -99.90      -99.90      -99.90      -99.90      -99.90      -99.90    
       -99.90      -99.90      -99.90      -99.90      -99.90      -99.90      -99.90      -99.90      -99.90      -99.90    
       -99.90      -99.90      -99.90      -99.90      -99.90      -99.90      -99.90      -99.90      -99.90      -99.90    
       -99.90      -99.90      -99.90      -99.90      -99.90      -99.90      -99.90      -99.90      -99.90      -99.90    
  20   -99.90      -99.90      -99.90      -99.90      -99.90      -99.90      -99.90      -99.90      -99.90      -99.90    
       -99.90      -99.90      -99.90      -99.90      -99.90      -99.90      -99.90      -99.90      -99.90      -99.90    
       -99.90      -99.90      -99.90      -99.90      -99.90      -99.90      -99.90      -99.90      -99.90      -99.90    
       -99.90      -99.90      -99.90      -99.90      -99.90      -99.90      -99.90      -99.90      -99.90      -99.90    
  21   -99.90      -99.90      -99.90      -99.90      -99.90      -99.90      -99.90      -99.90      -99.90      -99.90    
       -99.90      -99.90      -99.90      -99.90      -99.90      -99.90      -99.90      -99.90      -99.90      -99.90    
       -99.90      -99.90      -99.90      -99.90      -99.90      -99.90      -99.90      -99.90      -99.90      -99.90    
       -99.90      -99.90      -99.90      -99.90      -99.90      -99.90      -99.90      -99.90      -99.90      -99.90    
  22   -99.90      -99.90      -99.90      -99.90      -99.90      -99.90      -99.90      -99.90      -99.90      -99.90    
       -99.90      -99.90      -99.90      -99.90      -99.90      -99.90      -99.90      -99.90      -99.90      -99.90    
       -99.90      -99.90      -99.90      -99.90      -99.90      -99.90      -99.90      -99.90      -99.90      -99.90    
       -99.90      -99.90      -99.90      -99.90      -99.90      -99.90      -99.90      -99.90      -99.90      -99.90    
  23   -99.90      -99.90      -99.90      -99.90      -99.90      -99.90      -99.90      -99.90      -99.90      -99.90    
       -99.90      -99.90      -99.90      -99.90      -99.90      -99.90      -99.90      -99.90      -99.90      -99.90    
       -99.90      -99.90      -99.90      -99.90      -99.90      -99.90      -99.90      -99.90      -99.90      -99.90    
       -99.90      -99.90      -99.90      -99.90      -99.90      -99.90      -99.90      -99.90      -99.90      -99.90    
  24   -99.90      -99.90      -99.90      -99.90      -99.90      -99.90      -99.90      -99.90      -99.90      -99.90    
       -99.90      -99.90      -99.90      -99.90      -99.90      -99.90      -99.90      -99.90      -99.90      -99.90    
       -99.90      -99.90      -99.90      -99.90      -99.90      -99.90      -99.90      -99.90      -99.90      -99.90    
       -99.90      -99.90      -99.90      -99.90      -99.90      -99.90      -99.90      -99.90      -99.90      -99.90    
  25   -99.90      -99.90      -99.90      -99.90      -99.90      -99.90      -99.90      -99.90      -99.90      -99.90    
       -99.90      -99.90      -99.90      -99.90      -99.90      -99.90      -99.90      -99.90      -99.90      -99.90    
       -99.90      -99.90      -99.90      -99.90      -99.90      -99.90      -99.90      -99.90      -99.90      -99.90    
       -99.90      -99.90      -99.90      -99.90      -99.90      -99.90      -99.90      -99.90      -99.90      -99.90    
  26   -99.90      -99.90      -99.90      -99.90      -99.90      -99.90      -99.90      -99.90      -99.90      -99.90    
       -99.90      -99.90      -99.90      -99.90      -99.90      -99.90      -99.90      -99.90      -99.90      -99.90    
       -99.90      -99.90      -99.90      -99.90      -99.90      -99.90      -99.90      -99.90      -99.90      -99.90    
       -99.90      -99.90      -99.90      -99.90      -99.90      -99.90      -99.90      -99.90      -99.90      -99.90    
  27   -99.90      -99.90      -99.90      -99.90      -99.90      -99.90      -99.90      -99.90      -99.90      -99.90    
       -99.90      -99.90      -99.90      -99.90      -99.90      -99.90      -99.90      -99.90      -99.90      -99.90    
       -99.90      -99.90      -99.90      -99.90      -99.90      -99.90      -99.90      -99.90      -99.90      -99.90    
       -99.90      -99.90      -99.90      -99.90      -99.90      -99.90      -99.90      -99.90      -99.90      -99.90    
  28   -99.90      -99.90      -99.90      -99.90      -99.90      -99.90      -99.90      -99.90      -99.90      -99.90    
       -99.90      -99.90      -99.90      -99.90      -99.90      -99.90      -99.90      -99.90      -99.90      -99.90    
       -99.90      -99.90      -99.90      -99.90      -99.90      -99.90      -99.90      -99.90      -99.90      -99.90    
       -99.90      -99.90      -99.90      -99.90      -99.90      -99.90      -99.90      -99.90      -99.90      -99.90    
  29   -99.90      -99.90      -99.90      -99.90      -99.90      -99.90      -99.90      -99.90      -99.90      -99.90    
       -99.90      -99.90      -99.90      -99.90      -99.90      -99.90      -99.90      -99.90      -99.90      -99.90    
       -99.90      -99.90      -99.90      -99.90      -99.90      -99.90      -99.90      -99.90      -99.90      -99.90    
       -99.90      -99.90      -99.90      -99.90      -99.90      -99.90      -99.90      -99.90      -99.90      -99.90    
  30   -99.90      -99.90      -99.90      -99.90      -99.90      -99.90      -99.90      -99.90      -99.90      -99.90    
       -99.90      -99.90      -99.90      -99.90      -99.90      -99.90      -99.90      -99.90      -99.90      -99.90    
       -99.90      -99.90      -99.90      -99.90      -99.90      -99.90      -99.90      -99.90      -99.90      -99.90    
       -99.90      -99.90      -99.90      -99.90      -99.90      -99.90      -99.90      -99.90      -99.90      -99.90    
  31   -99.90      -99.90      -99.90      -99.90      -99.90      -99.90      -99.90      -99.90      -99.90      -99.90    
       -99.90      -99.90      -99.90      -99.90      -99.90      -99.90      -99.90      -99.90      -99.90      -99.90    
       -99.90      -99.90      -99.90      -99.90      -99.90      -99.90      -99.90      -99.90      -99.90      -99.90    
       -99.90      -99.90      -99.90      -99.90      -99.90      -99.90      -99.90      -99.90      -99.90      -99.90    
  32   -99.90      -99.90      -99.90      -99.90      -99.90      -99.90      -99.90      -99.90      -99.90      -99.90    
       -99.90      -99.90      -99.90      -99.90      -99.90      -99.90      -99.90      -99.90      -99.90      -99.90    
       -99.90      -99.90      -99.90      -99.90      -99.90      -99.90      -99.90      -99.90      -99.90      -99.90    
       -99.90      -99.90      -99.90      -99.90      -99.90      -99.90      -99.90      -99.90      -99.90      -99.90    
  33   -99.90      -99.90      -99.90      -99.90      -99.90      -99.90      -99.90      -99.90      -99.90      -99.90    
       -99.90      -99.90      -99.90      -99.90      -99.90      -99.90      -99.90      -99.90      -99.90      -99.90    
       -99.90      -99.90      -99.90      -99.90      -99.90      -99.90      -99.90      -99.90      -99.90      -99.90    
       -99.90      -99.90      -99.90      -99.90      -99.90      -99.90      -99.90      -99.90      -99.90      -99.90    
  34   -99.90      -99.90      -99.90      -99.90      -99.90      -99.90      -99.90      -99.90      -99.90      -99.90    
       -99.90      -99.90      -99.90      -99.90      -99.90      -99.90      -99.90      -99.90      -99.90      -99.90    
       -99.90      -99.90      -99.90      -99.90      -99.90      -99.90      -99.90      -99.90      -99.90      -99.90    
       -99.90      -99.90      -99.90      -99.90      -99.90      -99.90      -99.90      -99.90      -99.90      -99.90    
  35   -99.90      -99.90      -99.90      -99.90      -99.90      -99.90      -99.90      -99.90      -99.90      -99.90    
       -99.90      -99.90      -99.90      -99.90      -99.90      -99.90      -99.90      -99.90      -99.90      -99.90    
       -99.90      -99.90      -99.90      -99.90      -99.90      -99.90      -99.90      -99.90      -99.90      -99.90    
       -99.90      -99.90      -99.90      -99.90      -99.90      -99.90      -99.90      -99.90      -99.90      -99.90    
  36   -99.90      -99.90      -99.90      -99.90      -99.90      -99.90      -99.90      -99.90      -99.90      -99.90    
       -99.90      -99.90      -99.90      -99.90      -99.90      -99.90      -99.90      -99.90      -99.90      -99.90    
       -99.90      -99.90      -99.90      -99.90      -99.90      -99.90      -99.90      -99.90      -99.90      -99.90    
       -99.90      -99.90      -99.90      -99.90      -99.90      -99.90      -99.90      -99.90      -99.90      -99.90    
  37   -99.90      -99.90      -99.90      -99.90      -99.90      -99.90      -99.90      -99.90      -99.90      -99.90    
       -99.90      -99.90      -99.90      -99.90      -99.90      -99.90      -99.90      -99.90      -99.90      -99.90    
       -99.90      -99.90      -99.90      -99.90      -99.90      -99.90      -99.90      -99.90      -99.90      -99.90    
       -99.90      -99.90      -99.90      -99.90      -99.90      -99.90      -99.90      -99.90      -99.90      -99.90    
  38   -99.90      -99.90      -99.90      -99.90      -99.90      -99.90      -99.90      -99.90      -99.90      -99.90    
       -99.90      -99.90      -99.90      -99.90      -99.90      -99.90      -99.90      -99.90      -99.90      -99.90    
       -99.90      -99.90      -99.90      -99.90      -99.90      -99.90      -99.90      -99.90      -99.90      -99.90    
       -99.90      -99.90      -99.90      -99.90      -99.90      -99.90      -99.90      -99.90      -99.90      -99.90    
  39   -99.90      -99.90      -99.90      -99.90      -99.90      -99.90      -99.90      -99.90      -99.90      -99.90    
       -99.90      -99.90      -99.90      -99.90      -99.90      -99.90      -99.90      -99.90      -99.90      -99.90    
       -99.90      -99.90      -99.90      -99.90      -99.90      -99.90      -99.90      -99.90      -99.90      -99.90    
       -99.90      -99.90      -99.90      -99.90      -99.90      -99.90      -99.90      -99.90      -99.90      -99.90    
  40   -99.90      -99.90      -99.90      -99.90      -99.90      -99.90      -99.90      -99.90      -99.90      -99.90    
       -99.90      -99.90      -99.90      -99.90      -99.90      -99.90      -99.90      -99.90      -99.90      -99.90    
       -99.90      -99.90      -99.90      -99.90      -99.90      -99.90      -99.90      -99.90      -99.90      -99.90    
       -99.90      -99.90      -99.90      -99.90      -99.90      -99.90      -99.90      -99.90      -99.90      -99.90    
1
              HEAD IN LAYER   6 AT END OF TIME STEP  10 IN STRESS PERIOD    1
  ---------------------------------------------------------------------------

            1           2           3           4           5           6           7           8           9          10
           11          12          13          14          15          16          17          18          19          20
           21          22          23          24          25          26          27          28          29          30
           31          32          33          34          35          36          37          38          39          40
 ........................................................................................................................
   1    42.44      -99.90      -99.90      -99.90      -99.90      -99.90      -99.90      -99.90      -99.90      -99.90    
       -99.90      -99.90      -99.90      -99.90      -99.90      -99.90      -99.90      -99.90      -99.90      -99.90    
       -99.90      -99.90      -99.90      -99.90      -99.90      -99.90      -99.90      -99.90      -99.90      -99.90    
       -99.90      -99.90      -99.90      -99.90      -99.90      -99.90      -99.90      -99.90      -99.90      -99.90    
   2   -99.90      -99.90      -99.90      -99.90      -99.90      -99.90      -99.90      -99.90      -99.90      -99.90    
       -99.90      -99.90      -99.90      -99.90      -99.90      -99.90      -99.90      -99.90      -99.90      -99.90    
       -99.90      -99.90      -99.90      -99.90      -99.90      -99.90      -99.90      -99.90      -99.90      -99.90    
       -99.90      -99.90      -99.90      -99.90      -99.90      -99.90      -99.90      -99.90      -99.90      -99.90    
   3   -99.90      -99.90      -99.90      -99.90      -99.90      -99.90      -99.90      -99.90      -99.90      -99.90    
       -99.90      -99.90      -99.90      -99.90      -99.90      -99.90      -99.90      -99.90      -99.90      -99.90    
       -99.90      -99.90      -99.90      -99.90      -99.90      -99.90      -99.90      -99.90      -99.90      -99.90    
       -99.90      -99.90      -99.90      -99.90      -99.90      -99.90      -99.90      -99.90      -99.90      -99.90    
   4   -99.90      -99.90      -99.90      -99.90      -99.90      -99.90      -99.90      -99.90      -99.90      -99.90    
       -99.90      -99.90      -99.90      -99.90      -99.90      -99.90      -99.90      -99.90      -99.90      -99.90    
       -99.90      -99.90      -99.90      -99.90      -99.90      -99.90      -99.90      -99.90      -99.90      -99.90    
       -99.90      -99.90      -99.90      -99.90      -99.90      -99.90      -99.90      -99.90      -99.90      -99.90    
   5   -99.90      -99.90      -99.90      -99.90      -99.90      -99.90      -99.90      -99.90      -99.90      -99.90    
       -99.90      -99.90      -99.90      -99.90      -99.90      -99.90      -99.90      -99.90      -99.90      -99.90    
       -99.90      -99.90      -99.90      -99.90      -99.90      -99.90      -99.90      -99.90      -99.90      -99.90    
       -99.90      -99.90      -99.90      -99.90      -99.90      -99.90      -99.90      -99.90      -99.90      -99.90    
   6   -99.90      -99.90      -99.90      -99.90      -99.90      -99.90      -99.90      -99.90      -99.90      -99.90    
       -99.90      -99.90      -99.90      -99.90      -99.90      -99.90      -99.90      -99.90      -99.90      -99.90    
       -99.90      -99.90      -99.90      -99.90      -99.90      -99.90      -99.90      -99.90      -99.90      -99.90    
       -99.90      -99.90      -99.90      -99.90      -99.90      -99.90      -99.90      -99.90      -99.90      -99.90    
   7   -99.90      -99.90      -99.90      -99.90      -99.90      -99.90      -99.90      -99.90      -99.90      -99.90    
       -99.90      -99.90      -99.90      -99.90      -99.90      -99.90      -99.90      -99.90      -99.90      -99.90    
       -99.90      -99.90      -99.90      -99.90      -99.90      -99.90      -99.90      -99.90      -99.90      -99.90    
       -99.90      -99.90      -99.90      -99.90      -99.90      -99.90      -99.90      -99.90      -99.90      -99.90    
   8   -99.90      -99.90      -99.90      -99.90      -99.90      -99.90      -99.90      -99.90      -99.90      -99.90    
       -99.90      -99.90      -99.90      -99.90      -99.90      -99.90      -99.90      -99.90      -99.90      -99.90    
       -99.90      -99.90      -99.90      -99.90      -99.90      -99.90      -99.90      -99.90      -99.90      -99.90    
       -99.90      -99.90      -99.90      -99.90      -99.90      -99.90      -99.90      -99.90      -99.90      -99.90    
   9   -99.90      -99.90      -99.90      -99.90      -99.90      -99.90      -99.90      -99.90      -99.90      -99.90    
       -99.90      -99.90      -99.90      -99.90      -99.90      -99.90      -99.90      -99.90      -99.90      -99.90    
       -99.90      -99.90      -99.90      -99.90      -99.90      -99.90      -99.90      -99.90      -99.90      -99.90    
       -99.90      -99.90      -99.90      -99.90      -99.90      -99.90      -99.90      -99.90      -99.90      -99.90    
  10   -99.90      -99.90      -99.90      -99.90      -99.90      -99.90      -99.90      -99.90      -99.90      -99.90    
       -99.90      -99.90      -99.90      -99.90      -99.90      -99.90      -99.90      -99.90      -99.90      -99.90    
       -99.90      -99.90      -99.90      -99.90      -99.90      -99.90      -99.90      -99.90      -99.90      -99.90    
       -99.90      -99.90      -99.90      -99.90      -99.90      -99.90      -99.90      -99.90      -99.90      -99.90    
  11   -99.90      -99.90      -99.90      -99.90      -99.90      -99.90      -99.90      -99.90      -99.90      -99.90    
       -99.90      -99.90      -99.90      -99.90      -99.90      -99.90      -99.90      -99.90      -99.90      -99.90    
       -99.90      -99.90      -99.90      -99.90      -99.90      -99.90      -99.90      -99.90      -99.90      -99.90    
       -99.90      -99.90      -99.90      -99.90      -99.90      -99.90      -99.90      -99.90      -99.90      -99.90    
  12   -99.90      -99.90      -99.90      -99.90      -99.90      -99.90      -99.90      -99.90      -99.90      -99.90    
       -99.90      -99.90      -99.90      -99.90      -99.90      -99.90      -99.90      -99.90      -99.90      -99.90    
       -99.90      -99.90      -99.90      -99.90      -99.90      -99.90      -99.90      -99.90      -99.90      -99.90    
       -99.90      -99.90      -99.90      -99.90      -99.90      -99.90      -99.90      -99.90      -99.90      -99.90    
  13   -99.90      -99.90      -99.90      -99.90      -99.90      -99.90      -99.90      -99.90      -99.90      -99.90    
       -99.90      -99.90      -99.90      -99.90      -99.90      -99.90      -99.90      -99.90      -99.90      -99.90    
       -99.90      -99.90      -99.90      -99.90      -99.90      -99.90      -99.90      -99.90      -99.90      -99.90    
       -99.90      -99.90      -99.90      -99.90      -99.90      -99.90      -99.90      -99.90      -99.90      -99.90    
  14   -99.90      -99.90      -99.90      -99.90      -99.90      -99.90      -99.90      -99.90      -99.90      -99.90    
       -99.90      -99.90      -99.90      -99.90      -99.90      -99.90      -99.90      -99.90      -99.90      -99.90    
       -99.90      -99.90      -99.90      -99.90      -99.90      -99.90      -99.90      -99.90      -99.90      -99.90    
       -99.90      -99.90      -99.90      -99.90      -99.90      -99.90      -99.90      -99.90      -99.90      -99.90    
  15   -99.90      -99.90      -99.90      -99.90      -99.90      -99.90      -99.90      -99.90      -99.90      -99.90    
       -99.90      -99.90      -99.90      -99.90      -99.90      -99.90      -99.90      -99.90      -99.90      -99.90    
       -99.90      -99.90      -99.90      -99.90      -99.90      -99.90      -99.90      -99.90      -99.90      -99.90    
       -99.90      -99.90      -99.90      -99.90      -99.90      -99.90      -99.90      -99.90      -99.90      -99.90    
  16   -99.90      -99.90      -99.90      -99.90      -99.90      -99.90      -99.90      -99.90      -99.90      -99.90    
       -99.90      -99.90      -99.90      -99.90      -99.90      -99.90      -99.90      -99.90      -99.90      -99.90    
       -99.90      -99.90      -99.90      -99.90      -99.90      -99.90      -99.90      -99.90      -99.90      -99.90    
       -99.90      -99.90      -99.90      -99.90      -99.90      -99.90      -99.90      -99.90      -99.90      -99.90    
  17   -99.90      -99.90      -99.90      -99.90      -99.90      -99.90      -99.90      -99.90      -99.90      -99.90    
       -99.90      -99.90      -99.90      -99.90      -99.90      -99.90      -99.90      -99.90      -99.90      -99.90    
       -99.90      -99.90      -99.90      -99.90      -99.90      -99.90      -99.90      -99.90      -99.90      -99.90    
       -99.90      -99.90      -99.90      -99.90      -99.90      -99.90      -99.90      -99.90      -99.90      -99.90    
  18   -99.90      -99.90      -99.90      -99.90      -99.90      -99.90      -99.90      -99.90      -99.90      -99.90    
       -99.90      -99.90      -99.90      -99.90      -99.90      -99.90      -99.90      -99.90      -99.90      -99.90    
       -99.90      -99.90      -99.90      -99.90      -99.90      -99.90      -99.90      -99.90      -99.90      -99.90    
       -99.90      -99.90      -99.90      -99.90      -99.90      -99.90      -99.90      -99.90      -99.90      -99.90    
  19   -99.90      -99.90      -99.90      -99.90      -99.90      -99.90      -99.90      -99.90      -99.90      -99.90    
       -99.90      -99.90      -99.90      -99.90      -99.90      -99.90      -99.90      -99.90      -99.90      -99.90    
       -99.90      -99.90      -99.90      -99.90      -99.90      -99.90      -99.90      -99.90      -99.90      -99.90    
       -99.90      -99.90      -99.90      -99.90      -99.90      -99.90      -99.90      -99.90      -99.90      -99.90    
  20   -99.90      -99.90      -99.90      -99.90      -99.90      -99.90      -99.90      -99.90      -99.90      -99.90    
       -99.90      -99.90      -99.90      -99.90      -99.90      -99.90      -99.90      -99.90      -99.90      -99.90    
       -99.90      -99.90      -99.90      -99.90      -99.90      -99.90      -99.90      -99.90      -99.90      -99.90    
       -99.90      -99.90      -99.90      -99.90      -99.90      -99.90      -99.90      -99.90      -99.90      -99.90    
  21   -99.90      -99.90      -99.90      -99.90      -99.90      -99.90      -99.90      -99.90      -99.90      -99.90    
       -99.90      -99.90      -99.90      -99.90      -99.90      -99.90      -99.90      -99.90      -99.90      -99.90    
       -99.90      -99.90      -99.90      -99.90      -99.90      -99.90      -99.90      -99.90      -99.90      -99.90    
       -99.90      -99.90      -99.90      -99.90      -99.90      -99.90      -99.90      -99.90      -99.90      -99.90    
  22   -99.90      -99.90      -99.90      -99.90      -99.90      -99.90      -99.90      -99.90      -99.90      -99.90    
       -99.90      -99.90      -99.90      -99.90      -99.90      -99.90      -99.90      -99.90      -99.90      -99.90    
       -99.90      -99.90      -99.90      -99.90      -99.90      -99.90      -99.90      -99.90      -99.90      -99.90    
       -99.90      -99.90      -99.90      -99.90      -99.90      -99.90      -99.90      -99.90      -99.90      -99.90    
  23   -99.90      -99.90      -99.90      -99.90      -99.90      -99.90      -99.90      -99.90      -99.90      -99.90    
       -99.90      -99.90      -99.90      -99.90      -99.90      -99.90      -99.90      -99.90      -99.90      -99.90    
       -99.90      -99.90      -99.90      -99.90      -99.90      -99.90      -99.90      -99.90      -99.90      -99.90    
       -99.90      -99.90      -99.90      -99.90      -99.90      -99.90      -99.90      -99.90      -99.90      -99.90    
  24   -99.90      -99.90      -99.90      -99.90      -99.90      -99.90      -99.90      -99.90      -99.90      -99.90    
       -99.90      -99.90      -99.90      -99.90      -99.90      -99.90      -99.90      -99.90      -99.90      -99.90    
       -99.90      -99.90      -99.90      -99.90      -99.90      -99.90      -99.90      -99.90      -99.90      -99.90    
       -99.90      -99.90      -99.90      -99.90      -99.90      -99.90      -99.90      -99.90      -99.90      -99.90    
  25   -99.90      -99.90      -99.90      -99.90      -99.90      -99.90      -99.90      -99.90      -99.90      -99.90    
       -99.90      -99.90      -99.90      -99.90      -99.90      -99.90      -99.90      -99.90      -99.90      -99.90    
       -99.90      -99.90      -99.90      -99.90      -99.90      -99.90      -99.90      -99.90      -99.90      -99.90    
       -99.90      -99.90      -99.90      -99.90      -99.90      -99.90      -99.90      -99.90      -99.90      -99.90    
  26   -99.90      -99.90      -99.90      -99.90      -99.90      -99.90      -99.90      -99.90      -99.90      -99.90    
       -99.90      -99.90      -99.90      -99.90      -99.90      -99.90      -99.90      -99.90      -99.90      -99.90    
       -99.90      -99.90      -99.90      -99.90      -99.90      -99.90      -99.90      -99.90      -99.90      -99.90    
       -99.90      -99.90      -99.90      -99.90      -99.90      -99.90      -99.90      -99.90      -99.90      -99.90    
  27   -99.90      -99.90      -99.90      -99.90      -99.90      -99.90      -99.90      -99.90      -99.90      -99.90    
       -99.90      -99.90      -99.90      -99.90      -99.90      -99.90      -99.90      -99.90      -99.90      -99.90    
       -99.90      -99.90      -99.90      -99.90      -99.90      -99.90      -99.90      -99.90      -99.90      -99.90    
       -99.90      -99.90      -99.90      -99.90      -99.90      -99.90      -99.90      -99.90      -99.90      -99.90    
  28   -99.90      -99.90      -99.90      -99.90      -99.90      -99.90      -99.90      -99.90      -99.90      -99.90    
       -99.90      -99.90      -99.90      -99.90      -99.90      -99.90      -99.90      -99.90      -99.90      -99.90    
       -99.90      -99.90      -99.90      -99.90      -99.90      -99.90      -99.90      -99.90      -99.90      -99.90    
       -99.90      -99.90      -99.90      -99.90      -99.90      -99.90      -99.90      -99.90      -99.90      -99.90    
  29   -99.90      -99.90      -99.90      -99.90      -99.90      -99.90      -99.90      -99.90      -99.90      -99.90    
       -99.90      -99.90      -99.90      -99.90      -99.90      -99.90      -99.90      -99.90      -99.90      -99.90    
       -99.90      -99.90      -99.90      -99.90      -99.90      -99.90      -99.90      -99.90      -99.90      -99.90    
       -99.90      -99.90      -99.90      -99.90      -99.90      -99.90      -99.90      -99.90      -99.90      -99.90    
  30   -99.90      -99.90      -99.90      -99.90      -99.90      -99.90      -99.90      -99.90      -99.90      -99.90    
       -99.90      -99.90      -99.90      -99.90      -99.90      -99.90      -99.90      -99.90      -99.90      -99.90    
       -99.90      -99.90      -99.90      -99.90      -99.90      -99.90      -99.90      -99.90      -99.90      -99.90    
       -99.90      -99.90      -99.90      -99.90      -99.90      -99.90      -99.90      -99.90      -99.90      -99.90    
  31   -99.90      -99.90      -99.90      -99.90      -99.90      -99.90      -99.90      -99.90      -99.90      -99.90    
       -99.90      -99.90      -99.90      -99.90      -99.90      -99.90      -99.90      -99.90      -99.90      -99.90    
       -99.90      -99.90      -99.90      -99.90      -99.90      -99.90      -99.90      -99.90      -99.90      -99.90    
       -99.90      -99.90      -99.90      -99.90      -99.90      -99.90      -99.90      -99.90      -99.90      -99.90    
  32   -99.90      -99.90      -99.90      -99.90      -99.90      -99.90      -99.90      -99.90      -99.90      -99.90    
       -99.90      -99.90      -99.90      -99.90      -99.90      -99.90      -99.90      -99.90      -99.90      -99.90    
       -99.90      -99.90      -99.90      -99.90      -99.90      -99.90      -99.90      -99.90      -99.90      -99.90    
       -99.90      -99.90      -99.90      -99.90      -99.90      -99.90      -99.90      -99.90      -99.90      -99.90    
  33   -99.90      -99.90      -99.90      -99.90      -99.90      -99.90      -99.90      -99.90      -99.90      -99.90    
       -99.90      -99.90      -99.90      -99.90      -99.90      -99.90      -99.90      -99.90      -99.90      -99.90    
       -99.90      -99.90      -99.90      -99.90      -99.90      -99.90      -99.90      -99.90      -99.90      -99.90    
       -99.90      -99.90      -99.90      -99.90      -99.90      -99.90      -99.90      -99.90      -99.90      -99.90    
  34   -99.90      -99.90      -99.90      -99.90      -99.90      -99.90      -99.90      -99.90      -99.90      -99.90    
       -99.90      -99.90      -99.90      -99.90      -99.90      -99.90      -99.90      -99.90      -99.90      -99.90    
       -99.90      -99.90      -99.90      -99.90      -99.90      -99.90      -99.90      -99.90      -99.90      -99.90    
       -99.90      -99.90      -99.90      -99.90      -99.90      -99.90      -99.90      -99.90      -99.90      -99.90    
  35   -99.90      -99.90      -99.90      -99.90      -99.90      -99.90      -99.90      -99.90      -99.90      -99.90    
       -99.90      -99.90      -99.90      -99.90      -99.90      -99.90      -99.90      -99.90      -99.90      -99.90    
       -99.90      -99.90      -99.90      -99.90      -99.90      -99.90      -99.90      -99.90      -99.90      -99.90    
       -99.90      -99.90      -99.90      -99.90      -99.90      -99.90      -99.90      -99.90      -99.90      -99.90    
  36   -99.90      -99.90      -99.90      -99.90      -99.90      -99.90      -99.90      -99.90      -99.90      -99.90    
       -99.90      -99.90      -99.90      -99.90      -99.90      -99.90      -99.90      -99.90      -99.90      -99.90    
       -99.90      -99.90      -99.90      -99.90      -99.90      -99.90      -99.90      -99.90      -99.90      -99.90    
       -99.90      -99.90      -99.90      -99.90      -99.90      -99.90      -99.90      -99.90      -99.90      -99.90    
  37   -99.90      -99.90      -99.90      -99.90      -99.90      -99.90      -99.90      -99.90      -99.90      -99.90    
       -99.90      -99.90      -99.90      -99.90      -99.90      -99.90      -99.90      -99.90      -99.90      -99.90    
       -99.90      -99.90      -99.90      -99.90      -99.90      -99.90      -99.90      -99.90      -99.90      -99.90    
       -99.90      -99.90      -99.90      -99.90      -99.90      -99.90      -99.90      -99.90      -99.90      -99.90    
  38   -99.90      -99.90      -99.90      -99.90      -99.90      -99.90      -99.90      -99.90      -99.90      -99.90    
       -99.90      -99.90      -99.90      -99.90      -99.90      -99.90      -99.90      -99.90      -99.90      -99.90    
       -99.90      -99.90      -99.90      -99.90      -99.90      -99.90      -99.90      -99.90      -99.90      -99.90    
       -99.90      -99.90      -99.90      -99.90      -99.90      -99.90      -99.90      -99.90      -99.90      -99.90    
  39   -99.90      -99.90      -99.90      -99.90      -99.90      -99.90      -99.90      -99.90      -99.90      -99.90    
       -99.90      -99.90      -99.90      -99.90      -99.90      -99.90      -99.90      -99.90      -99.90      -99.90    
       -99.90      -99.90      -99.90      -99.90      -99.90      -99.90      -99.90      -99.90      -99.90      -99.90    
       -99.90      -99.90      -99.90      -99.90      -99.90      -99.90      -99.90      -99.90      -99.90      -99.90    
  40   -99.90      -99.90      -99.90      -99.90      -99.90      -99.90      -99.90      -99.90      -99.90      -99.90    
       -99.90      -99.90      -99.90      -99.90      -99.90      -99.90      -99.90      -99.90      -99.90      -99.90    
       -99.90      -99.90      -99.90      -99.90      -99.90      -99.90      -99.90      -99.90      -99.90      -99.90    
       -99.90      -99.90      -99.90      -99.90      -99.90      -99.90      -99.90      -99.90      -99.90      -99.90    
1
              HEAD IN LAYER   7 AT END OF TIME STEP  10 IN STRESS PERIOD    1
  ---------------------------------------------------------------------------

            1           2           3           4           5           6           7           8           9          10
           11          12          13          14          15          16          17          18          19          20
           21          22          23          24          25          26          27          28          29          30
           31          32          33          34          35          36          37          38          39          40
 ........................................................................................................................
   1    41.60       40.22      -99.90      -99.90      -99.90      -99.90      -99.90      -99.90      -99.90      -99.90    
       -99.90      -99.90      -99.90      -99.90      -99.90      -99.90      -99.90      -99.90      -99.90      -99.90    
       -99.90      -99.90      -99.90      -99.90      -99.90      -99.90      -99.90      -99.90      -99.90      -99.90    
       -99.90      -99.90      -99.90      -99.90      -99.90      -99.90      -99.90      -99.90      -99.90      -99.90    
   2    40.22       38.84      -99.90      -99.90      -99.90      -99.90      -99.90      -99.90      -99.90      -99.90    
       -99.90      -99.90      -99.90      -99.90      -99.90      -99.90      -99.90      -99.90      -99.90      -99.90    
       -99.90      -99.90      -99.90      -99.90      -99.90      -99.90      -99.90      -99.90      -99.90      -99.90    
       -99.90      -99.90      -99.90      -99.90      -99.90      -99.90      -99.90      -99.90      -99.90      -99.90    
   3   -99.90      -99.90      -99.90      -99.90      -99.90      -99.90      -99.90      -99.90      -99.90      -99.90    
       -99.90      -99.90      -99.90      -99.90      -99.90      -99.90      -99.90      -99.90      -99.90      -99.90    
       -99.90      -99.90      -99.90      -99.90      -99.90      -99.90      -99.90      -99.90      -99.90      -99.90    
       -99.90      -99.90      -99.90      -99.90      -99.90      -99.90      -99.90      -99.90      -99.90      -99.90    
   4   -99.90      -99.90      -99.90      -99.90      -99.90      -99.90      -99.90      -99.90      -99.90      -99.90    
       -99.90      -99.90      -99.90      -99.90      -99.90      -99.90      -99.90      -99.90      -99.90      -99.90    
       -99.90      -99.90      -99.90      -99.90      -99.90      -99.90      -99.90      -99.90      -99.90      -99.90    
       -99.90      -99.90      -99.90      -99.90      -99.90      -99.90      -99.90      -99.90      -99.90      -99.90    
   5   -99.90      -99.90      -99.90      -99.90      -99.90      -99.90      -99.90      -99.90      -99.90      -99.90    
       -99.90      -99.90      -99.90      -99.90      -99.90      -99.90      -99.90      -99.90      -99.90      -99.90    
       -99.90      -99.90      -99.90      -99.90      -99.90      -99.90      -99.90      -99.90      -99.90      -99.90    
       -99.90      -99.90      -99.90      -99.90      -99.90      -99.90      -99.90      -99.90      -99.90      -99.90    
   6   -99.90      -99.90      -99.90      -99.90      -99.90      -99.90      -99.90      -99.90      -99.90      -99.90    
       -99.90      -99.90      -99.90      -99.90      -99.90      -99.90      -99.90      -99.90      -99.90      -99.90    
       -99.90      -99.90      -99.90      -99.90      -99.90      -99.90      -99.90      -99.90      -99.90      -99.90    
       -99.90      -99.90      -99.90      -99.90      -99.90      -99.90      -99.90      -99.90      -99.90      -99.90    
   7   -99.90      -99.90      -99.90      -99.90      -99.90      -99.90      -99.90      -99.90      -99.90      -99.90    
       -99.90      -99.90      -99.90      -99.90      -99.90      -99.90      -99.90      -99.90      -99.90      -99.90    
       -99.90      -99.90      -99.90      -99.90      -99.90      -99.90      -99.90      -99.90      -99.90      -99.90    
       -99.90      -99.90      -99.90      -99.90      -99.90      -99.90      -99.90      -99.90      -99.90      -99.90    
   8   -99.90      -99.90      -99.90      -99.90      -99.90      -99.90      -99.90      -99.90      -99.90      -99.90    
       -99.90      -99.90      -99.90      -99.90      -99.90      -99.90      -99.90      -99.90      -99.90      -99.90    
       -99.90      -99.90      -99.90      -99.90      -99.90      -99.90      -99.90      -99.90      -99.90      -99.90    
       -99.90      -99.90      -99.90      -99.90      -99.90      -99.90      -99.90      -99.90      -99.90      -99.90    
   9   -99.90      -99.90      -99.90      -99.90      -99.90      -99.90      -99.90      -99.90      -99.90      -99.90    
       -99.90      -99.90      -99.90      -99.90      -99.90      -99.90      -99.90      -99.90      -99.90      -99.90    
       -99.90      -99.90      -99.90      -99.90      -99.90      -99.90      -99.90      -99.90      -99.90      -99.90    
       -99.90      -99.90      -99.90      -99.90      -99.90      -99.90      -99.90      -99.90      -99.90      -99.90    
  10   -99.90      -99.90      -99.90      -99.90      -99.90      -99.90      -99.90      -99.90      -99.90      -99.90    
       -99.90      -99.90      -99.90      -99.90      -99.90      -99.90      -99.90      -99.90      -99.90      -99.90    
       -99.90      -99.90      -99.90      -99.90      -99.90      -99.90      -99.90      -99.90      -99.90      -99.90    
       -99.90      -99.90      -99.90      -99.90      -99.90      -99.90      -99.90      -99.90      -99.90      -99.90    
  11   -99.90      -99.90      -99.90      -99.90      -99.90      -99.90      -99.90      -99.90      -99.90      -99.90    
       -99.90      -99.90      -99.90      -99.90      -99.90      -99.90      -99.90      -99.90      -99.90      -99.90    
       -99.90      -99.90      -99.90      -99.90      -99.90      -99.90      -99.90      -99.90      -99.90      -99.90    
       -99.90      -99.90      -99.90      -99.90      -99.90      -99.90      -99.90      -99.90      -99.90      -99.90    
  12   -99.90      -99.90      -99.90      -99.90      -99.90      -99.90      -99.90      -99.90      -99.90      -99.90    
       -99.90      -99.90      -99.90      -99.90      -99.90      -99.90      -99.90      -99.90      -99.90      -99.90    
       -99.90      -99.90      -99.90      -99.90      -99.90      -99.90      -99.90      -99.90      -99.90      -99.90    
       -99.90      -99.90      -99.90      -99.90      -99.90      -99.90      -99.90      -99.90      -99.90      -99.90    
  13   -99.90      -99.90      -99.90      -99.90      -99.90      -99.90      -99.90      -99.90      -99.90      -99.90    
       -99.90      -99.90      -99.90      -99.90      -99.90      -99.90      -99.90      -99.90      -99.90      -99.90    
       -99.90      -99.90      -99.90      -99.90      -99.90      -99.90      -99.90      -99.90      -99.90      -99.90    
       -99.90      -99.90      -99.90      -99.90      -99.90      -99.90      -99.90      -99.90      -99.90      -99.90    
  14   -99.90      -99.90      -99.90      -99.90      -99.90      -99.90      -99.90      -99.90      -99.90      -99.90    
       -99.90      -99.90      -99.90      -99.90      -99.90      -99.90      -99.90      -99.90      -99.90      -99.90    
       -99.90      -99.90      -99.90      -99.90      -99.90      -99.90      -99.90      -99.90      -99.90      -99.90    
       -99.90      -99.90      -99.90      -99.90      -99.90      -99.90      -99.90      -99.90      -99.90      -99.90    
  15   -99.90      -99.90      -99.90      -99.90      -99.90      -99.90      -99.90      -99.90      -99.90      -99.90    
       -99.90      -99.90      -99.90      -99.90      -99.90      -99.90      -99.90      -99.90      -99.90      -99.90    
       -99.90      -99.90      -99.90      -99.90      -99.90      -99.90      -99.90      -99.90      -99.90      -99.90    
       -99.90      -99.90      -99.90      -99.90      -99.90      -99.90      -99.90      -99.90      -99.90      -99.90    
  16   -99.90      -99.90      -99.90      -99.90      -99.90      -99.90      -99.90      -99.90      -99.90      -99.90    
       -99.90      -99.90      -99.90      -99.90      -99.90      -99.90      -99.90      -99.90      -99.90      -99.90    
       -99.90      -99.90      -99.90      -99.90      -99.90      -99.90      -99.90      -99.90      -99.90      -99.90    
       -99.90      -99.90      -99.90      -99.90      -99.90      -99.90      -99.90      -99.90      -99.90      -99.90    
  17   -99.90      -99.90      -99.90      -99.90      -99.90      -99.90      -99.90      -99.90      -99.90      -99.90    
       -99.90      -99.90      -99.90      -99.90      -99.90      -99.90      -99.90      -99.90      -99.90      -99.90    
       -99.90      -99.90      -99.90      -99.90      -99.90      -99.90      -99.90      -99.90      -99.90      -99.90    
       -99.90      -99.90      -99.90      -99.90      -99.90      -99.90      -99.90      -99.90      -99.90      -99.90    
  18   -99.90      -99.90      -99.90      -99.90      -99.90      -99.90      -99.90      -99.90      -99.90      -99.90    
       -99.90      -99.90      -99.90      -99.90      -99.90      -99.90      -99.90      -99.90      -99.90      -99.90    
       -99.90      -99.90      -99.90      -99.90      -99.90      -99.90      -99.90      -99.90      -99.90      -99.90    
       -99.90      -99.90      -99.90      -99.90      -99.90      -99.90      -99.90      -99.90      -99.90      -99.90    
  19   -99.90      -99.90      -99.90      -99.90      -99.90      -99.90      -99.90      -99.90      -99.90      -99.90    
       -99.90      -99.90      -99.90      -99.90      -99.90      -99.90      -99.90      -99.90      -99.90      -99.90    
       -99.90      -99.90      -99.90      -99.90      -99.90      -99.90      -99.90      -99.90      -99.90      -99.90    
       -99.90      -99.90      -99.90      -99.90      -99.90      -99.90      -99.90      -99.90      -99.90      -99.90    
  20   -99.90      -99.90      -99.90      -99.90      -99.90      -99.90      -99.90      -99.90      -99.90      -99.90    
       -99.90      -99.90      -99.90      -99.90      -99.90      -99.90      -99.90      -99.90      -99.90      -99.90    
       -99.90      -99.90      -99.90      -99.90      -99.90      -99.90      -99.90      -99.90      -99.90      -99.90    
       -99.90      -99.90      -99.90      -99.90      -99.90      -99.90      -99.90      -99.90      -99.90      -99.90    
  21   -99.90      -99.90      -99.90      -99.90      -99.90      -99.90      -99.90      -99.90      -99.90      -99.90    
       -99.90      -99.90      -99.90      -99.90      -99.90      -99.90      -99.90      -99.90      -99.90      -99.90    
       -99.90      -99.90      -99.90      -99.90      -99.90      -99.90      -99.90      -99.90      -99.90      -99.90    
       -99.90      -99.90      -99.90      -99.90      -99.90      -99.90      -99.90      -99.90      -99.90      -99.90    
  22   -99.90      -99.90      -99.90      -99.90      -99.90      -99.90      -99.90      -99.90      -99.90      -99.90    
       -99.90      -99.90      -99.90      -99.90      -99.90      -99.90      -99.90      -99.90      -99.90      -99.90    
       -99.90      -99.90      -99.90      -99.90      -99.90      -99.90      -99.90      -99.90      -99.90      -99.90    
       -99.90      -99.90      -99.90      -99.90      -99.90      -99.90      -99.90      -99.90      -99.90      -99.90    
  23   -99.90      -99.90      -99.90      -99.90      -99.90      -99.90      -99.90      -99.90      -99.90      -99.90    
       -99.90      -99.90      -99.90      -99.90      -99.90      -99.90      -99.90      -99.90      -99.90      -99.90    
       -99.90      -99.90      -99.90      -99.90      -99.90      -99.90      -99.90      -99.90      -99.90      -99.90    
       -99.90      -99.90      -99.90      -99.90      -99.90      -99.90      -99.90      -99.90      -99.90      -99.90    
  24   -99.90      -99.90      -99.90      -99.90      -99.90      -99.90      -99.90      -99.90      -99.90      -99.90    
       -99.90      -99.90      -99.90      -99.90      -99.90      -99.90      -99.90      -99.90      -99.90      -99.90    
       -99.90      -99.90      -99.90      -99.90      -99.90      -99.90      -99.90      -99.90      -99.90      -99.90    
       -99.90      -99.90      -99.90      -99.90      -99.90      -99.90      -99.90      -99.90      -99.90      -99.90    
  25   -99.90      -99.90      -99.90      -99.90      -99.90      -99.90      -99.90      -99.90      -99.90      -99.90    
       -99.90      -99.90      -99.90      -99.90      -99.90      -99.90      -99.90      -99.90      -99.90      -99.90    
       -99.90      -99.90      -99.90      -99.90      -99.90      -99.90      -99.90      -99.90      -99.90      -99.90    
       -99.90      -99.90      -99.90      -99.90      -99.90      -99.90      -99.90      -99.90      -99.90      -99.90    
  26   -99.90      -99.90      -99.90      -99.90      -99.90      -99.90      -99.90      -99.90      -99.90      -99.90    
       -99.90      -99.90      -99.90      -99.90      -99.90      -99.90      -99.90      -99.90      -99.90      -99.90    
       -99.90      -99.90      -99.90      -99.90      -99.90      -99.90      -99.90      -99.90      -99.90      -99.90    
       -99.90      -99.90      -99.90      -99.90      -99.90      -99.90      -99.90      -99.90      -99.90      -99.90    
  27   -99.90      -99.90      -99.90      -99.90      -99.90      -99.90      -99.90      -99.90      -99.90      -99.90    
       -99.90      -99.90      -99.90      -99.90      -99.90      -99.90      -99.90      -99.90      -99.90      -99.90    
       -99.90      -99.90      -99.90      -99.90      -99.90      -99.90      -99.90      -99.90      -99.90      -99.90    
       -99.90      -99.90      -99.90      -99.90      -99.90      -99.90      -99.90      -99.90      -99.90      -99.90    
  28   -99.90      -99.90      -99.90      -99.90      -99.90      -99.90      -99.90      -99.90      -99.90      -99.90    
       -99.90      -99.90      -99.90      -99.90      -99.90      -99.90      -99.90      -99.90      -99.90      -99.90    
       -99.90      -99.90      -99.90      -99.90      -99.90      -99.90      -99.90      -99.90      -99.90      -99.90    
       -99.90      -99.90      -99.90      -99.90      -99.90      -99.90      -99.90      -99.90      -99.90      -99.90    
  29   -99.90      -99.90      -99.90      -99.90      -99.90      -99.90      -99.90      -99.90      -99.90      -99.90    
       -99.90      -99.90      -99.90      -99.90      -99.90      -99.90      -99.90      -99.90      -99.90      -99.90    
       -99.90      -99.90      -99.90      -99.90      -99.90      -99.90      -99.90      -99.90      -99.90      -99.90    
       -99.90      -99.90      -99.90      -99.90      -99.90      -99.90      -99.90      -99.90      -99.90      -99.90    
  30   -99.90      -99.90      -99.90      -99.90      -99.90      -99.90      -99.90      -99.90      -99.90      -99.90    
       -99.90      -99.90      -99.90      -99.90      -99.90      -99.90      -99.90      -99.90      -99.90      -99.90    
       -99.90      -99.90      -99.90      -99.90      -99.90      -99.90      -99.90      -99.90      -99.90      -99.90    
       -99.90      -99.90      -99.90      -99.90      -99.90      -99.90      -99.90      -99.90      -99.90      -99.90    
  31   -99.90      -99.90      -99.90      -99.90      -99.90      -99.90      -99.90      -99.90      -99.90      -99.90    
       -99.90      -99.90      -99.90      -99.90      -99.90      -99.90      -99.90      -99.90      -99.90      -99.90    
       -99.90      -99.90      -99.90      -99.90      -99.90      -99.90      -99.90      -99.90      -99.90      -99.90    
       -99.90      -99.90      -99.90      -99.90      -99.90      -99.90      -99.90      -99.90      -99.90      -99.90    
  32   -99.90      -99.90      -99.90      -99.90      -99.90      -99.90      -99.90      -99.90      -99.90      -99.90    
       -99.90      -99.90      -99.90      -99.90      -99.90      -99.90      -99.90      -99.90      -99.90      -99.90    
       -99.90      -99.90      -99.90      -99.90      -99.90      -99.90      -99.90      -99.90      -99.90      -99.90    
       -99.90      -99.90      -99.90      -99.90      -99.90      -99.90      -99.90      -99.90      -99.90      -99.90    
  33   -99.90      -99.90      -99.90      -99.90      -99.90      -99.90      -99.90      -99.90      -99.90      -99.90    
       -99.90      -99.90      -99.90      -99.90      -99.90      -99.90      -99.90      -99.90      -99.90      -99.90    
       -99.90      -99.90      -99.90      -99.90      -99.90      -99.90      -99.90      -99.90      -99.90      -99.90    
       -99.90      -99.90      -99.90      -99.90      -99.90      -99.90      -99.90      -99.90      -99.90      -99.90    
  34   -99.90      -99.90      -99.90      -99.90      -99.90      -99.90      -99.90      -99.90      -99.90      -99.90    
       -99.90      -99.90      -99.90      -99.90      -99.90      -99.90      -99.90      -99.90      -99.90      -99.90    
       -99.90      -99.90      -99.90      -99.90      -99.90      -99.90      -99.90      -99.90      -99.90      -99.90    
       -99.90      -99.90      -99.90      -99.90      -99.90      -99.90      -99.90      -99.90      -99.90      -99.90    
  35   -99.90      -99.90      -99.90      -99.90      -99.90      -99.90      -99.90      -99.90      -99.90      -99.90    
       -99.90      -99.90      -99.90      -99.90      -99.90      -99.90      -99.90      -99.90      -99.90      -99.90    
       -99.90      -99.90      -99.90      -99.90      -99.90      -99.90      -99.90      -99.90      -99.90      -99.90    
       -99.90      -99.90      -99.90      -99.90      -99.90      -99.90      -99.90      -99.90      -99.90      -99.90    
  36   -99.90      -99.90      -99.90      -99.90      -99.90      -99.90      -99.90      -99.90      -99.90      -99.90    
       -99.90      -99.90      -99.90      -99.90      -99.90      -99.90      -99.90      -99.90      -99.90      -99.90    
       -99.90      -99.90      -99.90      -99.90      -99.90      -99.90      -99.90      -99.90      -99.90      -99.90    
       -99.90      -99.90      -99.90      -99.90      -99.90      -99.90      -99.90      -99.90      -99.90      -99.90    
  37   -99.90      -99.90      -99.90      -99.90      -99.90      -99.90      -99.90      -99.90      -99.90      -99.90    
       -99.90      -99.90      -99.90      -99.90      -99.90      -99.90      -99.90      -99.90      -99.90      -99.90    
       -99.90      -99.90      -99.90      -99.90      -99.90      -99.90      -99.90      -99.90      -99.90      -99.90    
       -99.90      -99.90      -99.90      -99.90      -99.90      -99.90      -99.90      -99.90      -99.90      -99.90    
  38   -99.90      -99.90      -99.90      -99.90      -99.90      -99.90      -99.90      -99.90      -99.90      -99.90    
       -99.90      -99.90      -99.90      -99.90      -99.90      -99.90      -99.90      -99.90      -99.90      -99.90    
       -99.90      -99.90      -99.90      -99.90      -99.90      -99.90      -99.90      -99.90      -99.90      -99.90    
       -99.90      -99.90      -99.90      -99.90      -99.90      -99.90      -99.90      -99.90      -99.90      -99.90    
  39   -99.90      -99.90      -99.90      -99.90      -99.90      -99.90      -99.90      -99.90      -99.90      -99.90    
       -99.90      -99.90      -99.90      -99.90      -99.90      -99.90      -99.90      -99.90      -99.90      -99.90    
       -99.90      -99.90      -99.90      -99.90      -99.90      -99.90      -99.90      -99.90      -99.90      -99.90    
       -99.90      -99.90      -99.90      -99.90      -99.90      -99.90      -99.90      -99.90      -99.90      -99.90    
  40   -99.90      -99.90      -99.90      -99.90      -99.90      -99.90      -99.90      -99.90      -99.90      -99.90    
       -99.90      -99.90      -99.90      -99.90      -99.90      -99.90      -99.90      -99.90      -99.90      -99.90    
       -99.90      -99.90      -99.90      -99.90      -99.90      -99.90      -99.90      -99.90      -99.90      -99.90    
       -99.90      -99.90      -99.90      -99.90      -99.90      -99.90      -99.90      -99.90      -99.90      -99.90    
1
              HEAD IN LAYER   8 AT END OF TIME STEP  10 IN STRESS PERIOD    1
  ---------------------------------------------------------------------------

            1           2           3           4           5           6           7           8           9          10
           11          12          13          14          15          16          17          18          19          20
           21          22          23          24          25          26          27          28          29          30
           31          32          33          34          35          36          37          38          39          40
 ........................................................................................................................
   1    40.85       39.32       33.48      -99.90      -99.90      -99.90      -99.90      -99.90      -99.90      -99.90    
       -99.90      -99.90      -99.90      -99.90      -99.90      -99.90      -99.90      -99.90      -99.90      -99.90    
       -99.90      -99.90      -99.90      -99.90      -99.90      -99.90      -99.90      -99.90      -99.90      -99.90    
       -99.90      -99.90      -99.90      -99.90      -99.90      -99.90      -99.90      -99.90      -99.90      -99.90    
   2    39.32       37.89       32.46      -99.90      -99.90      -99.90      -99.90      -99.90      -99.90      -99.90    
       -99.90      -99.90      -99.90      -99.90      -99.90      -99.90      -99.90      -99.90      -99.90      -99.90    
       -99.90      -99.90      -99.90      -99.90      -99.90      -99.90      -99.90      -99.90      -99.90      -99.90    
       -99.90      -99.90      -99.90      -99.90      -99.90      -99.90      -99.90      -99.90      -99.90      -99.90    
   3    33.48       32.46       30.33      -99.90      -99.90      -99.90      -99.90      -99.90      -99.90      -99.90    
       -99.90      -99.90      -99.90      -99.90      -99.90      -99.90      -99.90      -99.90      -99.90      -99.90    
       -99.90      -99.90      -99.90      -99.90      -99.90      -99.90      -99.90      -99.90      -99.90      -99.90    
       -99.90      -99.90      -99.90      -99.90      -99.90      -99.90      -99.90      -99.90      -99.90      -99.90    
   4   -99.90      -99.90      -99.90      -99.90      -99.90      -99.90      -99.90      -99.90      -99.90      -99.90    
       -99.90      -99.90      -99.90      -99.90      -99.90      -99.90      -99.90      -99.90      -99.90      -99.90    
       -99.90      -99.90      -99.90      -99.90      -99.90      -99.90      -99.90      -99.90      -99.90      -99.90    
       -99.90      -99.90      -99.90      -99.90      -99.90      -99.90      -99.90      -99.90      -99.90      -99.90    
   5   -99.90      -99.90      -99.90      -99.90      -99.90      -99.90      -99.90      -99.90      -99.90      -99.90    
       -99.90      -99.90      -99.90      -99.90      -99.90      -99.90      -99.90      -99.90      -99.90      -99.90    
       -99.90      -99.90      -99.90      -99.90      -99.90      -99.90      -99.90      -99.90      -99.90      -99.90    
       -99.90      -99.90      -99.90      -99.90      -99.90      -99.90      -99.90      -99.90      -99.90      -99.90    
   6   -99.90      -99.90      -99.90      -99.90      -99.90      -99.90      -99.90      -99.90      -99.90      -99.90    
       -99.90      -99.90      -99.90      -99.90      -99.90      -99.90      -99.90      -99.90      -99.90      -99.90    
       -99.90      -99.90      -99.90      -99.90      -99.90      -99.90      -99.90      -99.90      -99.90      -99.90    
       -99.90      -99.90      -99.90      -99.90      -99.90      -99.90      -99.90      -99.90      -99.90      -99.90    
   7   -99.90      -99.90      -99.90      -99.90      -99.90      -99.90      -99.90      -99.90      -99.90      -99.90    
       -99.90      -99.90      -99.90      -99.90      -99.90      -99.90      -99.90      -99.90      -99.90      -99.90    
       -99.90      -99.90      -99.90      -99.90      -99.90      -99.90      -99.90      -99.90      -99.90      -99.90    
       -99.90      -99.90      -99.90      -99.90      -99.90      -99.90      -99.90      -99.90      -99.90      -99.90    
   8   -99.90      -99.90      -99.90      -99.90      -99.90      -99.90      -99.90      -99.90      -99.90      -99.90    
       -99.90      -99.90      -99.90      -99.90      -99.90      -99.90      -99.90      -99.90      -99.90      -99.90    
       -99.90      -99.90      -99.90      -99.90      -99.90      -99.90      -99.90      -99.90      -99.90      -99.90    
       -99.90      -99.90      -99.90      -99.90      -99.90      -99.90      -99.90      -99.90      -99.90      -99.90    
   9   -99.90      -99.90      -99.90      -99.90      -99.90      -99.90      -99.90      -99.90      -99.90      -99.90    
       -99.90      -99.90      -99.90      -99.90      -99.90      -99.90      -99.90      -99.90      -99.90      -99.90    
       -99.90      -99.90      -99.90      -99.90      -99.90      -99.90      -99.90      -99.90      -99.90      -99.90    
       -99.90      -99.90      -99.90      -99.90      -99.90      -99.90      -99.90      -99.90      -99.90      -99.90    
  10   -99.90      -99.90      -99.90      -99.90      -99.90      -99.90      -99.90      -99.90      -99.90      -99.90    
       -99.90      -99.90      -99.90      -99.90      -99.90      -99.90      -99.90      -99.90      -99.90      -99.90    
       -99.90      -99.90      -99.90      -99.90      -99.90      -99.90      -99.90      -99.90      -99.90      -99.90    
       -99.90      -99.90      -99.90      -99.90      -99.90      -99.90      -99.90      -99.90      -99.90      -99.90    
  11   -99.90      -99.90      -99.90      -99.90      -99.90      -99.90      -99.90      -99.90      -99.90      -99.90    
       -99.90      -99.90      -99.90      -99.90      -99.90      -99.90      -99.90      -99.90      -99.90      -99.90    
       -99.90      -99.90      -99.90      -99.90      -99.90      -99.90      -99.90      -99.90      -99.90      -99.90    
       -99.90      -99.90      -99.90      -99.90      -99.90      -99.90      -99.90      -99.90      -99.90      -99.90    
  12   -99.90      -99.90      -99.90      -99.90      -99.90      -99.90      -99.90      -99.90      -99.90      -99.90    
       -99.90      -99.90      -99.90      -99.90      -99.90      -99.90      -99.90      -99.90      -99.90      -99.90    
       -99.90      -99.90      -99.90      -99.90      -99.90      -99.90      -99.90      -99.90      -99.90      -99.90    
       -99.90      -99.90      -99.90      -99.90      -99.90      -99.90      -99.90      -99.90      -99.90      -99.90    
  13   -99.90      -99.90      -99.90      -99.90      -99.90      -99.90      -99.90      -99.90      -99.90      -99.90    
       -99.90      -99.90      -99.90      -99.90      -99.90      -99.90      -99.90      -99.90      -99.90      -99.90    
       -99.90      -99.90      -99.90      -99.90      -99.90      -99.90      -99.90      -99.90      -99.90      -99.90    
       -99.90      -99.90      -99.90      -99.90      -99.90      -99.90      -99.90      -99.90      -99.90      -99.90    
  14   -99.90      -99.90      -99.90      -99.90      -99.90      -99.90      -99.90      -99.90      -99.90      -99.90    
       -99.90      -99.90      -99.90      -99.90      -99.90      -99.90      -99.90      -99.90      -99.90      -99.90    
       -99.90      -99.90      -99.90      -99.90      -99.90      -99.90      -99.90      -99.90      -99.90      -99.90    
       -99.90      -99.90      -99.90      -99.90      -99.90      -99.90      -99.90      -99.90      -99.90      -99.90    
  15   -99.90      -99.90      -99.90      -99.90      -99.90      -99.90      -99.90      -99.90      -99.90      -99.90    
       -99.90      -99.90      -99.90      -99.90      -99.90      -99.90      -99.90      -99.90      -99.90      -99.90    
       -99.90      -99.90      -99.90      -99.90      -99.90      -99.90      -99.90      -99.90      -99.90      -99.90    
       -99.90      -99.90      -99.90      -99.90      -99.90      -99.90      -99.90      -99.90      -99.90      -99.90    
  16   -99.90      -99.90      -99.90      -99.90      -99.90      -99.90      -99.90      -99.90      -99.90      -99.90    
       -99.90      -99.90      -99.90      -99.90      -99.90      -99.90      -99.90      -99.90      -99.90      -99.90    
       -99.90      -99.90      -99.90      -99.90      -99.90      -99.90      -99.90      -99.90      -99.90      -99.90    
       -99.90      -99.90      -99.90      -99.90      -99.90      -99.90      -99.90      -99.90      -99.90      -99.90    
  17   -99.90      -99.90      -99.90      -99.90      -99.90      -99.90      -99.90      -99.90      -99.90      -99.90    
       -99.90      -99.90      -99.90      -99.90      -99.90      -99.90      -99.90      -99.90      -99.90      -99.90    
       -99.90      -99.90      -99.90      -99.90      -99.90      -99.90      -99.90      -99.90      -99.90      -99.90    
       -99.90      -99.90      -99.90      -99.90      -99.90      -99.90      -99.90      -99.90      -99.90      -99.90    
  18   -99.90      -99.90      -99.90      -99.90      -99.90      -99.90      -99.90      -99.90      -99.90      -99.90    
       -99.90      -99.90      -99.90      -99.90      -99.90      -99.90      -99.90      -99.90      -99.90      -99.90    
       -99.90      -99.90      -99.90      -99.90      -99.90      -99.90      -99.90      -99.90      -99.90      -99.90    
       -99.90      -99.90      -99.90      -99.90      -99.90      -99.90      -99.90      -99.90      -99.90      -99.90    
  19   -99.90      -99.90      -99.90      -99.90      -99.90      -99.90      -99.90      -99.90      -99.90      -99.90    
       -99.90      -99.90      -99.90      -99.90      -99.90      -99.90      -99.90      -99.90      -99.90      -99.90    
       -99.90      -99.90      -99.90      -99.90      -99.90      -99.90      -99.90      -99.90      -99.90      -99.90    
       -99.90      -99.90      -99.90      -99.90      -99.90      -99.90      -99.90      -99.90      -99.90      -99.90    
  20   -99.90      -99.90      -99.90      -99.90      -99.90      -99.90      -99.90      -99.90      -99.90      -99.90    
       -99.90      -99.90      -99.90      -99.90      -99.90      -99.90      -99.90      -99.90      -99.90      -99.90    
       -99.90      -99.90      -99.90      -99.90      -99.90      -99.90      -99.90      -99.90      -99.90      -99.90    
       -99.90      -99.90      -99.90      -99.90      -99.90      -99.90      -99.90      -99.90      -99.90      -99.90    
  21   -99.90      -99.90      -99.90      -99.90      -99.90      -99.90      -99.90      -99.90      -99.90      -99.90    
       -99.90      -99.90      -99.90      -99.90      -99.90      -99.90      -99.90      -99.90      -99.90      -99.90    
       -99.90      -99.90      -99.90      -99.90      -99.90      -99.90      -99.90      -99.90      -99.90      -99.90    
       -99.90      -99.90      -99.90      -99.90      -99.90      -99.90      -99.90      -99.90      -99.90      -99.90    
  22   -99.90      -99.90      -99.90      -99.90      -99.90      -99.90      -99.90      -99.90      -99.90      -99.90    
       -99.90      -99.90      -99.90      -99.90      -99.90      -99.90      -99.90      -99.90      -99.90      -99.90    
       -99.90      -99.90      -99.90      -99.90      -99.90      -99.90      -99.90      -99.90      -99.90      -99.90    
       -99.90      -99.90      -99.90      -99.90      -99.90      -99.90      -99.90      -99.90      -99.90      -99.90    
  23   -99.90      -99.90      -99.90      -99.90      -99.90      -99.90      -99.90      -99.90      -99.90      -99.90    
       -99.90      -99.90      -99.90      -99.90      -99.90      -99.90      -99.90      -99.90      -99.90      -99.90    
       -99.90      -99.90      -99.90      -99.90      -99.90      -99.90      -99.90      -99.90      -99.90      -99.90    
       -99.90      -99.90      -99.90      -99.90      -99.90      -99.90      -99.90      -99.90      -99.90      -99.90    
  24   -99.90      -99.90      -99.90      -99.90      -99.90      -99.90      -99.90      -99.90      -99.90      -99.90    
       -99.90      -99.90      -99.90      -99.90      -99.90      -99.90      -99.90      -99.90      -99.90      -99.90    
       -99.90      -99.90      -99.90      -99.90      -99.90      -99.90      -99.90      -99.90      -99.90      -99.90    
       -99.90      -99.90      -99.90      -99.90      -99.90      -99.90      -99.90      -99.90      -99.90      -99.90    
  25   -99.90      -99.90      -99.90      -99.90      -99.90      -99.90      -99.90      -99.90      -99.90      -99.90    
       -99.90      -99.90      -99.90      -99.90      -99.90      -99.90      -99.90      -99.90      -99.90      -99.90    
       -99.90      -99.90      -99.90      -99.90      -99.90      -99.90      -99.90      -99.90      -99.90      -99.90    
       -99.90      -99.90      -99.90      -99.90      -99.90      -99.90      -99.90      -99.90      -99.90      -99.90    
  26   -99.90      -99.90      -99.90      -99.90      -99.90      -99.90      -99.90      -99.90      -99.90      -99.90    
       -99.90      -99.90      -99.90      -99.90      -99.90      -99.90      -99.90      -99.90      -99.90      -99.90    
       -99.90      -99.90      -99.90      -99.90      -99.90      -99.90      -99.90      -99.90      -99.90      -99.90    
       -99.90      -99.90      -99.90      -99.90      -99.90      -99.90      -99.90      -99.90      -99.90      -99.90    
  27   -99.90      -99.90      -99.90      -99.90      -99.90      -99.90      -99.90      -99.90      -99.90      -99.90    
       -99.90      -99.90      -99.90      -99.90      -99.90      -99.90      -99.90      -99.90      -99.90      -99.90    
       -99.90      -99.90      -99.90      -99.90      -99.90      -99.90      -99.90      -99.90      -99.90      -99.90    
       -99.90      -99.90      -99.90      -99.90      -99.90      -99.90      -99.90      -99.90      -99.90      -99.90    
  28   -99.90      -99.90      -99.90      -99.90      -99.90      -99.90      -99.90      -99.90      -99.90      -99.90    
       -99.90      -99.90      -99.90      -99.90      -99.90      -99.90      -99.90      -99.90      -99.90      -99.90    
       -99.90      -99.90      -99.90      -99.90      -99.90      -99.90      -99.90      -99.90      -99.90      -99.90    
       -99.90      -99.90      -99.90      -99.90      -99.90      -99.90      -99.90      -99.90      -99.90      -99.90    
  29   -99.90      -99.90      -99.90      -99.90      -99.90      -99.90      -99.90      -99.90      -99.90      -99.90    
       -99.90      -99.90      -99.90      -99.90      -99.90      -99.90      -99.90      -99.90      -99.90      -99.90    
       -99.90      -99.90      -99.90      -99.90      -99.90      -99.90      -99.90      -99.90      -99.90      -99.90    
       -99.90      -99.90      -99.90      -99.90      -99.90      -99.90      -99.90      -99.90      -99.90      -99.90    
  30   -99.90      -99.90      -99.90      -99.90      -99.90      -99.90      -99.90      -99.90      -99.90      -99.90    
       -99.90      -99.90      -99.90      -99.90      -99.90      -99.90      -99.90      -99.90      -99.90      -99.90    
       -99.90      -99.90      -99.90      -99.90      -99.90      -99.90      -99.90      -99.90      -99.90      -99.90    
       -99.90      -99.90      -99.90      -99.90      -99.90      -99.90      -99.90      -99.90      -99.90      -99.90    
  31   -99.90      -99.90      -99.90      -99.90      -99.90      -99.90      -99.90      -99.90      -99.90      -99.90    
       -99.90      -99.90      -99.90      -99.90      -99.90      -99.90      -99.90      -99.90      -99.90      -99.90    
       -99.90      -99.90      -99.90      -99.90      -99.90      -99.90      -99.90      -99.90      -99.90      -99.90    
       -99.90      -99.90      -99.90      -99.90      -99.90      -99.90      -99.90      -99.90      -99.90      -99.90    
  32   -99.90      -99.90      -99.90      -99.90      -99.90      -99.90      -99.90      -99.90      -99.90      -99.90    
       -99.90      -99.90      -99.90      -99.90      -99.90      -99.90      -99.90      -99.90      -99.90      -99.90    
       -99.90      -99.90      -99.90      -99.90      -99.90      -99.90      -99.90      -99.90      -99.90      -99.90    
       -99.90      -99.90      -99.90      -99.90      -99.90      -99.90      -99.90      -99.90      -99.90      -99.90    
  33   -99.90      -99.90      -99.90      -99.90      -99.90      -99.90      -99.90      -99.90      -99.90      -99.90    
       -99.90      -99.90      -99.90      -99.90      -99.90      -99.90      -99.90      -99.90      -99.90      -99.90    
       -99.90      -99.90      -99.90      -99.90      -99.90      -99.90      -99.90      -99.90      -99.90      -99.90    
       -99.90      -99.90      -99.90      -99.90      -99.90      -99.90      -99.90      -99.90      -99.90      -99.90    
  34   -99.90      -99.90      -99.90      -99.90      -99.90      -99.90      -99.90      -99.90      -99.90      -99.90    
       -99.90      -99.90      -99.90      -99.90      -99.90      -99.90      -99.90      -99.90      -99.90      -99.90    
       -99.90      -99.90      -99.90      -99.90      -99.90      -99.90      -99.90      -99.90      -99.90      -99.90    
       -99.90      -99.90      -99.90      -99.90      -99.90      -99.90      -99.90      -99.90      -99.90      -99.90    
  35   -99.90      -99.90      -99.90      -99.90      -99.90      -99.90      -99.90      -99.90      -99.90      -99.90    
       -99.90      -99.90      -99.90      -99.90      -99.90      -99.90      -99.90      -99.90      -99.90      -99.90    
       -99.90      -99.90      -99.90      -99.90      -99.90      -99.90      -99.90      -99.90      -99.90      -99.90    
       -99.90      -99.90      -99.90      -99.90      -99.90      -99.90      -99.90      -99.90      -99.90      -99.90    
  36   -99.90      -99.90      -99.90      -99.90      -99.90      -99.90      -99.90      -99.90      -99.90      -99.90    
       -99.90      -99.90      -99.90      -99.90      -99.90      -99.90      -99.90      -99.90      -99.90      -99.90    
       -99.90      -99.90      -99.90      -99.90      -99.90      -99.90      -99.90      -99.90      -99.90      -99.90    
       -99.90      -99.90      -99.90      -99.90      -99.90      -99.90      -99.90      -99.90      -99.90      -99.90    
  37   -99.90      -99.90      -99.90      -99.90      -99.90      -99.90      -99.90      -99.90      -99.90      -99.90    
       -99.90      -99.90      -99.90      -99.90      -99.90      -99.90      -99.90      -99.90      -99.90      -99.90    
       -99.90      -99.90      -99.90      -99.90      -99.90      -99.90      -99.90      -99.90      -99.90      -99.90    
       -99.90      -99.90      -99.90      -99.90      -99.90      -99.90      -99.90      -99.90      -99.90      -99.90    
  38   -99.90      -99.90      -99.90      -99.90      -99.90      -99.90      -99.90      -99.90      -99.90      -99.90    
       -99.90      -99.90      -99.90      -99.90      -99.90      -99.90      -99.90      -99.90      -99.90      -99.90    
       -99.90      -99.90      -99.90      -99.90      -99.90      -99.90      -99.90      -99.90      -99.90      -99.90    
       -99.90      -99.90      -99.90      -99.90      -99.90      -99.90      -99.90      -99.90      -99.90      -99.90    
  39   -99.90      -99.90      -99.90      -99.90      -99.90      -99.90      -99.90      -99.90      -99.90      -99.90    
       -99.90      -99.90      -99.90      -99.90      -99.90      -99.90      -99.90      -99.90      -99.90      -99.90    
       -99.90      -99.90      -99.90      -99.90      -99.90      -99.90      -99.90      -99.90      -99.90      -99.90    
       -99.90      -99.90      -99.90      -99.90      -99.90      -99.90      -99.90      -99.90      -99.90      -99.90    
  40   -99.90      -99.90      -99.90      -99.90      -99.90      -99.90      -99.90      -99.90      -99.90      -99.90    
       -99.90      -99.90      -99.90      -99.90      -99.90      -99.90      -99.90      -99.90      -99.90      -99.90    
       -99.90      -99.90      -99.90      -99.90      -99.90      -99.90      -99.90      -99.90      -99.90      -99.90    
       -99.90      -99.90      -99.90      -99.90      -99.90      -99.90      -99.90      -99.90      -99.90      -99.90    
1
              HEAD IN LAYER   9 AT END OF TIME STEP  10 IN STRESS PERIOD    1
  ---------------------------------------------------------------------------

            1           2           3           4           5           6           7           8           9          10
           11          12          13          14          15          16          17          18          19          20
           21          22          23          24          25          26          27          28          29          30
           31          32          33          34          35          36          37          38          39          40
 ........................................................................................................................
   1    40.20       38.57       33.49       30.35       28.21       26.89       26.09       25.62       25.34       25.19    
        25.10       25.05       25.03       25.02       25.01       25.00       25.00      -99.90      -99.90      -99.90    
       -99.90      -99.90      -99.90      -99.90      -99.90      -99.90      -99.90      -99.90      -99.90      -99.90    
       -99.90      -99.90      -99.90      -99.90      -99.90      -99.90      -99.90      -99.90      -99.90      -99.90    
   2    38.57       37.07       32.46       29.66       27.87       26.72       26.00       25.57       25.32       25.18    
        25.10       25.05       25.03       25.01       25.01       25.00       25.00      -99.90      -99.90      -99.90    
       -99.90      -99.90      -99.90      -99.90      -99.90      -99.90      -99.90      -99.90      -99.90      -99.90    
       -99.90      -99.90      -99.90      -99.90      -99.90      -99.90      -99.90      -99.90      -99.90      -99.90    
   3    33.49       32.46       30.38       28.62       27.31       26.41       25.84       25.49       25.28       25.15    
        25.09       25.05       25.02       25.01       25.01       25.00       25.00      -99.90      -99.90      -99.90    
       -99.90      -99.90      -99.90      -99.90      -99.90      -99.90      -99.90      -99.90      -99.90      -99.90    
       -99.90      -99.90      -99.90      -99.90      -99.90      -99.90      -99.90      -99.90      -99.90      -99.90    
   4    30.35       29.66       28.62       27.56       26.70       26.08       25.66       25.39       25.22       25.13    
        25.07       25.04       25.02       25.01       25.01       25.00       25.00      -99.90      -99.90      -99.90    
       -99.90      -99.90      -99.90      -99.90      -99.90      -99.90      -99.90      -99.90      -99.90      -99.90    
       -99.90      -99.90      -99.90      -99.90      -99.90      -99.90      -99.90      -99.90      -99.90      -99.90    
   5    28.21       27.87       27.31       26.70       26.17       25.76       25.48       25.29       25.17       25.10    
        25.06       25.03       25.02       25.01       25.01       25.00      -99.90      -99.90      -99.90      -99.90    
       -99.90      -99.90      -99.90      -99.90      -99.90      -99.90      -99.90      -99.90      -99.90      -99.90    
       -99.90      -99.90      -99.90      -99.90      -99.90      -99.90      -99.90      -99.90      -99.90      -99.90    
   6    26.89       26.72       26.41       26.08       25.76       25.52       25.33       25.21       25.12       25.07    
        25.04       25.02       25.01       25.01       25.00       25.00      -99.90      -99.90      -99.90      -99.90    
       -99.90      -99.90      -99.90      -99.90      -99.90      -99.90      -99.90      -99.90      -99.90      -99.90    
       -99.90      -99.90      -99.90      -99.90      -99.90      -99.90      -99.90      -99.90      -99.90      -99.90    
   7    26.09       26.00       25.84       25.66       25.48       25.33       25.22       25.14       25.09       25.05    
        25.03       25.02       25.01       25.01       25.00       25.00      -99.90      -99.90      -99.90      -99.90    
       -99.90      -99.90      -99.90      -99.90      -99.90      -99.90      -99.90      -99.90      -99.90      -99.90    
       -99.90      -99.90      -99.90      -99.90      -99.90      -99.90      -99.90      -99.90      -99.90      -99.90    
   8    25.62       25.57       25.49       25.39       25.29       25.21       25.14       25.09       25.06       25.04    
        25.02       25.01       25.01       25.00       25.00      -99.90      -99.90      -99.90      -99.90      -99.90    
       -99.90      -99.90      -99.90      -99.90      -99.90      -99.90      -99.90      -99.90      -99.90      -99.90    
       -99.90      -99.90      -99.90      -99.90      -99.90      -99.90      -99.90      -99.90      -99.90      -99.90    
   9    25.34       25.32       25.28       25.22       25.17       25.12       25.09       25.06       25.04       25.02    
        25.01       25.01       25.01       25.00       25.00      -99.90      -99.90      -99.90      -99.90      -99.90    
       -99.90      -99.90      -99.90      -99.90      -99.90      -99.90      -99.90      -99.90      -99.90      -99.90    
       -99.90      -99.90      -99.90      -99.90      -99.90      -99.90      -99.90      -99.90      -99.90      -99.90    
  10    25.19       25.18       25.15       25.13       25.10       25.07       25.05       25.04       25.02       25.01    
        25.01       25.01       25.00       25.00      -99.90      -99.90      -99.90      -99.90      -99.90      -99.90    
       -99.90      -99.90      -99.90      -99.90      -99.90      -99.90      -99.90      -99.90      -99.90      -99.90    
       -99.90      -99.90      -99.90      -99.90      -99.90      -99.90      -99.90      -99.90      -99.90      -99.90    
  11    25.10       25.10       25.09       25.07       25.06       25.04       25.03       25.02       25.01       25.01    
        25.01       25.00       25.00      -99.90      -99.90      -99.90      -99.90      -99.90      -99.90      -99.90    
       -99.90      -99.90      -99.90      -99.90      -99.90      -99.90      -99.90      -99.90      -99.90      -99.90    
       -99.90      -99.90      -99.90      -99.90      -99.90      -99.90      -99.90      -99.90      -99.90      -99.90    
  12    25.05       25.05       25.05       25.04       25.03       25.02       25.02       25.01       25.01       25.01    
        25.00       25.00      -99.90      -99.90      -99.90      -99.90      -99.90      -99.90      -99.90      -99.90    
       -99.90      -99.90      -99.90      -99.90      -99.90      -99.90      -99.90      -99.90      -99.90      -99.90    
       -99.90      -99.90      -99.90      -99.90      -99.90      -99.90      -99.90      -99.90      -99.90      -99.90    
  13    25.03       25.03       25.02       25.02       25.02       25.01       25.01       25.01       25.01       25.00    
        25.00      -99.90      -99.90      -99.90      -99.90      -99.90      -99.90      -99.90      -99.90      -99.90    
       -99.90      -99.90      -99.90      -99.90      -99.90      -99.90      -99.90      -99.90      -99.90      -99.90    
       -99.90      -99.90      -99.90      -99.90      -99.90      -99.90      -99.90      -99.90      -99.90      -99.90    
  14    25.02       25.01       25.01       25.01       25.01       25.01       25.01       25.00       25.00       25.00    
       -99.90      -99.90      -99.90      -99.90      -99.90      -99.90      -99.90      -99.90      -99.90      -99.90    
       -99.90      -99.90      -99.90      -99.90      -99.90      -99.90      -99.90      -99.90      -99.90      -99.90    
       -99.90      -99.90      -99.90      -99.90      -99.90      -99.90      -99.90      -99.90      -99.90      -99.90    
  15    25.01       25.01       25.01       25.01       25.01       25.00       25.00       25.00       25.00      -99.90    
       -99.90      -99.90      -99.90      -99.90      -99.90      -99.90      -99.90      -99.90      -99.90      -99.90    
       -99.90      -99.90      -99.90      -99.90      -99.90      -99.90      -99.90      -99.90      -99.90      -99.90    
       -99.90      -99.90      -99.90      -99.90      -99.90      -99.90      -99.90      -99.90      -99.90      -99.90    
  16    25.00       25.00       25.00       25.00       25.00       25.00       25.00      -99.90      -99.90      -99.90    
       -99.90      -99.90      -99.90      -99.90      -99.90      -99.90      -99.90      -99.90      -99.90      -99.90    
       -99.90      -99.90      -99.90      -99.90      -99.90      -99.90      -99.90      -99.90      -99.90      -99.90    
       -99.90      -99.90      -99.90      -99.90      -99.90      -99.90      -99.90      -99.90      -99.90      -99.90    
  17    25.00       25.00       25.00       25.00      -99.90      -99.90      -99.90      -99.90      -99.90      -99.90    
       -99.90      -99.90      -99.90      -99.90      -99.90      -99.90      -99.90      -99.90      -99.90      -99.90    
       -99.90      -99.90      -99.90      -99.90      -99.90      -99.90      -99.90      -99.90      -99.90      -99.90    
       -99.90      -99.90      -99.90      -99.90      -99.90      -99.90      -99.90      -99.90      -99.90      -99.90    
  18   -99.90      -99.90      -99.90      -99.90      -99.90      -99.90      -99.90      -99.90      -99.90      -99.90    
       -99.90      -99.90      -99.90      -99.90      -99.90      -99.90      -99.90      -99.90      -99.90      -99.90    
       -99.90      -99.90      -99.90      -99.90      -99.90      -99.90      -99.90      -99.90      -99.90      -99.90    
       -99.90      -99.90      -99.90      -99.90      -99.90      -99.90      -99.90      -99.90      -99.90      -99.90    
  19   -99.90      -99.90      -99.90      -99.90      -99.90      -99.90      -99.90      -99.90      -99.90      -99.90    
       -99.90      -99.90      -99.90      -99.90      -99.90      -99.90      -99.90      -99.90      -99.90      -99.90    
       -99.90      -99.90      -99.90      -99.90      -99.90      -99.90      -99.90      -99.90      -99.90      -99.90    
       -99.90      -99.90      -99.90      -99.90      -99.90      -99.90      -99.90      -99.90      -99.90      -99.90    
  20   -99.90      -99.90      -99.90      -99.90      -99.90      -99.90      -99.90      -99.90      -99.90      -99.90    
       -99.90      -99.90      -99.90      -99.90      -99.90      -99.90      -99.90      -99.90      -99.90      -99.90    
       -99.90      -99.90      -99.90      -99.90      -99.90      -99.90      -99.90      -99.90      -99.90      -99.90    
       -99.90      -99.90      -99.90      -99.90      -99.90      -99.90      -99.90      -99.90      -99.90      -99.90    
  21   -99.90      -99.90      -99.90      -99.90      -99.90      -99.90      -99.90      -99.90      -99.90      -99.90    
       -99.90      -99.90      -99.90      -99.90      -99.90      -99.90      -99.90      -99.90      -99.90      -99.90    
       -99.90      -99.90      -99.90      -99.90      -99.90      -99.90      -99.90      -99.90      -99.90      -99.90    
       -99.90      -99.90      -99.90      -99.90      -99.90      -99.90      -99.90      -99.90      -99.90      -99.90    
  22   -99.90      -99.90      -99.90      -99.90      -99.90      -99.90      -99.90      -99.90      -99.90      -99.90    
       -99.90      -99.90      -99.90      -99.90      -99.90      -99.90      -99.90      -99.90      -99.90      -99.90    
       -99.90      -99.90      -99.90      -99.90      -99.90      -99.90      -99.90      -99.90      -99.90      -99.90    
       -99.90      -99.90      -99.90      -99.90      -99.90      -99.90      -99.90      -99.90      -99.90      -99.90    
  23   -99.90      -99.90      -99.90      -99.90      -99.90      -99.90      -99.90      -99.90      -99.90      -99.90    
       -99.90      -99.90      -99.90      -99.90      -99.90      -99.90      -99.90      -99.90      -99.90      -99.90    
       -99.90      -99.90      -99.90      -99.90      -99.90      -99.90      -99.90      -99.90      -99.90      -99.90    
       -99.90      -99.90      -99.90      -99.90      -99.90      -99.90      -99.90      -99.90      -99.90      -99.90    
  24   -99.90      -99.90      -99.90      -99.90      -99.90      -99.90      -99.90      -99.90      -99.90      -99.90    
       -99.90      -99.90      -99.90      -99.90      -99.90      -99.90      -99.90      -99.90      -99.90      -99.90    
       -99.90      -99.90      -99.90      -99.90      -99.90      -99.90      -99.90      -99.90      -99.90      -99.90    
       -99.90      -99.90      -99.90      -99.90      -99.90      -99.90      -99.90      -99.90      -99.90      -99.90    
  25   -99.90      -99.90      -99.90      -99.90      -99.90      -99.90      -99.90      -99.90      -99.90      -99.90    
       -99.90      -99.90      -99.90      -99.90      -99.90      -99.90      -99.90      -99.90      -99.90      -99.90    
       -99.90      -99.90      -99.90      -99.90      -99.90      -99.90      -99.90      -99.90      -99.90      -99.90    
       -99.90      -99.90      -99.90      -99.90      -99.90      -99.90      -99.90      -99.90      -99.90      -99.90    
  26   -99.90      -99.90      -99.90      -99.90      -99.90      -99.90      -99.90      -99.90      -99.90      -99.90    
       -99.90      -99.90      -99.90      -99.90      -99.90      -99.90      -99.90      -99.90      -99.90      -99.90    
       -99.90      -99.90      -99.90      -99.90      -99.90      -99.90      -99.90      -99.90      -99.90      -99.90    
       -99.90      -99.90      -99.90      -99.90      -99.90      -99.90      -99.90      -99.90      -99.90      -99.90    
  27   -99.90      -99.90      -99.90      -99.90      -99.90      -99.90      -99.90      -99.90      -99.90      -99.90    
       -99.90      -99.90      -99.90      -99.90      -99.90      -99.90      -99.90      -99.90      -99.90      -99.90    
       -99.90      -99.90      -99.90      -99.90      -99.90      -99.90      -99.90      -99.90      -99.90      -99.90    
       -99.90      -99.90      -99.90      -99.90      -99.90      -99.90      -99.90      -99.90      -99.90      -99.90    
  28   -99.90      -99.90      -99.90      -99.90      -99.90      -99.90      -99.90      -99.90      -99.90      -99.90    
       -99.90      -99.90      -99.90      -99.90      -99.90      -99.90      -99.90      -99.90      -99.90      -99.90    
       -99.90      -99.90      -99.90      -99.90      -99.90      -99.90      -99.90      -99.90      -99.90      -99.90    
       -99.90      -99.90      -99.90      -99.90      -99.90      -99.90      -99.90      -99.90      -99.90      -99.90    
  29   -99.90      -99.90      -99.90      -99.90      -99.90      -99.90      -99.90      -99.90      -99.90      -99.90    
       -99.90      -99.90      -99.90      -99.90      -99.90      -99.90      -99.90      -99.90      -99.90      -99.90    
       -99.90      -99.90      -99.90      -99.90      -99.90      -99.90      -99.90      -99.90      -99.90      -99.90    
       -99.90      -99.90      -99.90      -99.90      -99.90      -99.90      -99.90      -99.90      -99.90      -99.90    
  30   -99.90      -99.90      -99.90      -99.90      -99.90      -99.90      -99.90      -99.90      -99.90      -99.90    
       -99.90      -99.90      -99.90      -99.90      -99.90      -99.90      -99.90      -99.90      -99.90      -99.90    
       -99.90      -99.90      -99.90      -99.90      -99.90      -99.90      -99.90      -99.90      -99.90      -99.90    
       -99.90      -99.90      -99.90      -99.90      -99.90      -99.90      -99.90      -99.90      -99.90      -99.90    
  31   -99.90      -99.90      -99.90      -99.90      -99.90      -99.90      -99.90      -99.90      -99.90      -99.90    
       -99.90      -99.90      -99.90      -99.90      -99.90      -99.90      -99.90      -99.90      -99.90      -99.90    
       -99.90      -99.90      -99.90      -99.90      -99.90      -99.90      -99.90      -99.90      -99.90      -99.90    
       -99.90      -99.90      -99.90      -99.90      -99.90      -99.90      -99.90      -99.90      -99.90      -99.90    
  32   -99.90      -99.90      -99.90      -99.90      -99.90      -99.90      -99.90      -99.90      -99.90      -99.90    
       -99.90      -99.90      -99.90      -99.90      -99.90      -99.90      -99.90      -99.90      -99.90      -99.90    
       -99.90      -99.90      -99.90      -99.90      -99.90      -99.90      -99.90      -99.90      -99.90      -99.90    
       -99.90      -99.90      -99.90      -99.90      -99.90      -99.90      -99.90      -99.90      -99.90      -99.90    
  33   -99.90      -99.90      -99.90      -99.90      -99.90      -99.90      -99.90      -99.90      -99.90      -99.90    
       -99.90      -99.90      -99.90      -99.90      -99.90      -99.90      -99.90      -99.90      -99.90      -99.90    
       -99.90      -99.90      -99.90      -99.90      -99.90      -99.90      -99.90      -99.90      -99.90      -99.90    
       -99.90      -99.90      -99.90      -99.90      -99.90      -99.90      -99.90      -99.90      -99.90      -99.90    
  34   -99.90      -99.90      -99.90      -99.90      -99.90      -99.90      -99.90      -99.90      -99.90      -99.90    
       -99.90      -99.90      -99.90      -99.90      -99.90      -99.90      -99.90      -99.90      -99.90      -99.90    
       -99.90      -99.90      -99.90      -99.90      -99.90      -99.90      -99.90      -99.90      -99.90      -99.90    
       -99.90      -99.90      -99.90      -99.90      -99.90      -99.90      -99.90      -99.90      -99.90      -99.90    
  35   -99.90      -99.90      -99.90      -99.90      -99.90      -99.90      -99.90      -99.90      -99.90      -99.90    
       -99.90      -99.90      -99.90      -99.90      -99.90      -99.90      -99.90      -99.90      -99.90      -99.90    
       -99.90      -99.90      -99.90      -99.90      -99.90      -99.90      -99.90      -99.90      -99.90      -99.90    
       -99.90      -99.90      -99.90      -99.90      -99.90      -99.90      -99.90      -99.90      -99.90      -99.90    
  36   -99.90      -99.90      -99.90      -99.90      -99.90      -99.90      -99.90      -99.90      -99.90      -99.90    
       -99.90      -99.90      -99.90      -99.90      -99.90      -99.90      -99.90      -99.90      -99.90      -99.90    
       -99.90      -99.90      -99.90      -99.90      -99.90      -99.90      -99.90      -99.90      -99.90      -99.90    
       -99.90      -99.90      -99.90      -99.90      -99.90      -99.90      -99.90      -99.90      -99.90      -99.90    
  37   -99.90      -99.90      -99.90      -99.90      -99.90      -99.90      -99.90      -99.90      -99.90      -99.90    
       -99.90      -99.90      -99.90      -99.90      -99.90      -99.90      -99.90      -99.90      -99.90      -99.90    
       -99.90      -99.90      -99.90      -99.90      -99.90      -99.90      -99.90      -99.90      -99.90      -99.90    
       -99.90      -99.90      -99.90      -99.90      -99.90      -99.90      -99.90      -99.90      -99.90      -99.90    
  38   -99.90      -99.90      -99.90      -99.90      -99.90      -99.90      -99.90      -99.90      -99.90      -99.90    
       -99.90      -99.90      -99.90      -99.90      -99.90      -99.90      -99.90      -99.90      -99.90      -99.90    
       -99.90      -99.90      -99.90      -99.90      -99.90      -99.90      -99.90      -99.90      -99.90      -99.90    
       -99.90      -99.90      -99.90      -99.90      -99.90      -99.90      -99.90      -99.90      -99.90      -99.90    
  39   -99.90      -99.90      -99.90      -99.90      -99.90      -99.90      -99.90      -99.90      -99.90      -99.90    
       -99.90      -99.90      -99.90      -99.90      -99.90      -99.90      -99.90      -99.90      -99.90      -99.90    
       -99.90      -99.90      -99.90      -99.90      -99.90      -99.90      -99.90      -99.90      -99.90      -99.90    
       -99.90      -99.90      -99.90      -99.90      -99.90      -99.90      -99.90      -99.90      -99.90      -99.90    
  40   -99.90      -99.90      -99.90      -99.90      -99.90      -99.90      -99.90      -99.90      -99.90      -99.90    
       -99.90      -99.90      -99.90      -99.90      -99.90      -99.90      -99.90      -99.90      -99.90      -99.90    
       -99.90      -99.90      -99.90      -99.90      -99.90      -99.90      -99.90      -99.90      -99.90      -99.90    
       -99.90      -99.90      -99.90      -99.90      -99.90      -99.90      -99.90      -99.90      -99.90      -99.90    
1
              HEAD IN LAYER  10 AT END OF TIME STEP  10 IN STRESS PERIOD    1
  ---------------------------------------------------------------------------

            1           2           3           4           5           6           7           8           9          10
           11          12          13          14          15          16          17          18          19          20
           21          22          23          24          25          26          27          28          29          30
           31          32          33          34          35          36          37          38          39          40
 ........................................................................................................................
   1    39.65       37.97       33.47       30.39       28.27       26.94       26.13       25.64       25.36       25.20    
        25.11       25.06       25.03       25.02       25.01       25.00       25.00       25.00       25.00       25.00    
        25.00       25.00       25.00       25.00       25.00       25.00       25.00       25.00       25.00       25.00    
        25.00       25.00       25.00       25.00       25.00       25.00       25.00       25.00       25.00       25.00    
   2    37.97       36.46       32.45       29.72       27.93       26.76       26.03       25.59       25.33       25.19    
        25.10       25.05       25.03       25.02       25.01       25.00       25.00       25.00       25.00       25.00    
        25.00       25.00       25.00       25.00       25.00       25.00       25.00       25.00       25.00       25.00    
        25.00       25.00       25.00       25.00       25.00       25.00       25.00       25.00       25.00       25.00    
   3    33.47       32.45       30.44       28.68       27.36       26.46       25.87       25.51       25.29       25.16    
        25.09       25.05       25.03       25.01       25.01       25.00       25.00       25.00       25.00       25.00    
        25.00       25.00       25.00       25.00       25.00       25.00       25.00       25.00       25.00       25.00    
        25.00       25.00       25.00       25.00       25.00       25.00       25.00       25.00       25.00       25.00    
   4    30.39       29.72       28.68       27.62       26.75       26.11       25.68       25.41       25.24       25.13    
        25.08       25.04       25.02       25.01       25.01       25.00       25.00       25.00       25.00       25.00    
        25.00       25.00       25.00       25.00       25.00       25.00       25.00       25.00       25.00       25.00    
        25.00       25.00       25.00       25.00       25.00       25.00       25.00       25.00       25.00       25.00    
   5    28.27       27.93       27.36       26.75       26.21       25.79       25.50       25.30       25.18       25.10    
        25.06       25.03       25.02       25.01       25.01       25.00       25.00       25.00       25.00       25.00    
        25.00       25.00       25.00       25.00       25.00       25.00       25.00       25.00       25.00       25.00    
        25.00       25.00       25.00       25.00       25.00       25.00       25.00       25.00       25.00       25.00    
   6    26.94       26.76       26.46       26.11       25.79       25.54       25.35       25.22       25.13       25.08    
        25.04       25.03       25.01       25.01       25.00       25.00       25.00       25.00       25.00       25.00    
        25.00       25.00       25.00       25.00       25.00       25.00       25.00       25.00       25.00       25.00    
        25.00       25.00       25.00       25.00       25.00       25.00       25.00       25.00       25.00       25.00    
   7    26.13       26.03       25.87       25.68       25.50       25.35       25.23       25.15       25.09       25.06    
        25.03       25.02       25.01       25.01       25.00       25.00       25.00       25.00       25.00       25.00    
        25.00       25.00       25.00       25.00       25.00       25.00       25.00       25.00       25.00       25.00    
        25.00       25.00       25.00       25.00       25.00       25.00       25.00       25.00       25.00       25.00    
   8    25.64       25.59       25.51       25.41       25.30       25.22       25.15       25.10       25.06       25.04    
        25.02       25.01       25.01       25.00       25.00       25.00       25.00       25.00       25.00       25.00    
        25.00       25.00       25.00       25.00       25.00       25.00       25.00       25.00       25.00       25.00    
        25.00       25.00       25.00       25.00       25.00       25.00       25.00       25.00       25.00       25.00    
   9    25.36       25.33       25.29       25.24       25.18       25.13       25.09       25.06       25.04       25.02    
        25.02       25.01       25.01       25.00       25.00       25.00       25.00       25.00       25.00       25.00    
        25.00       25.00       25.00       25.00       25.00       25.00       25.00       25.00       25.00       25.00    
        25.00       25.00       25.00       25.00       25.00       25.00       25.00       25.00       25.00       25.00    
  10    25.20       25.19       25.16       25.13       25.10       25.08       25.06       25.04       25.02       25.02    
        25.01       25.01       25.00       25.00       25.00       25.00       25.00       25.00       25.00       25.00    
        25.00       25.00       25.00       25.00       25.00       25.00       25.00       25.00       25.00       25.00    
        25.00       25.00       25.00       25.00       25.00       25.00       25.00       25.00       25.00       25.00    
  11    25.11       25.10       25.09       25.08       25.06       25.04       25.03       25.02       25.02       25.01    
        25.01       25.00       25.00       25.00       25.00       25.00       25.00       25.00       25.00       25.00    
        25.00       25.00       25.00       25.00       25.00       25.00       25.00       25.00       25.00       25.00    
        25.00       25.00       25.00       25.00       25.00       25.00       25.00       25.00       25.00       25.00    
  12    25.06       25.05       25.05       25.04       25.03       25.03       25.02       25.01       25.01       25.01    
        25.00       25.00       25.00       25.00       25.00       25.00       25.00       25.00       25.00       25.00    
        25.00       25.00       25.00       25.00       25.00       25.00       25.00       25.00       25.00       25.00    
        25.00       25.00       25.00       25.00       25.00       25.00       25.00       25.00       25.00       25.00    
  13    25.03       25.03       25.03       25.02       25.02       25.01       25.01       25.01       25.01       25.00    
        25.00       25.00       25.00       25.00       25.00       25.00       25.00       25.00       25.00       25.00    
        25.00       25.00       25.00       25.00       25.00       25.00       25.00       25.00       25.00       25.00    
        25.00       25.00       25.00       25.00       25.00       25.00       25.00       25.00       25.00       25.00    
  14    25.02       25.02       25.01       25.01       25.01       25.01       25.01       25.00       25.00       25.00    
        25.00       25.00       25.00       25.00       25.00       25.00       25.00       25.00       25.00       25.00    
        25.00       25.00       25.00       25.00       25.00       25.00       25.00       25.00       25.00       25.00    
        25.00       25.00       25.00       25.00       25.00       25.00       25.00       25.00       25.00       25.00    
  15    25.01       25.01       25.01       25.01       25.01       25.00       25.00       25.00       25.00       25.00    
        25.00       25.00       25.00       25.00       25.00       25.00       25.00       25.00       25.00       25.00    
        25.00       25.00       25.00       25.00       25.00       25.00       25.00       25.00       25.00       25.00    
        25.00       25.00       25.00       25.00       25.00       25.00       25.00       25.00       25.00       25.00    
  16    25.00       25.00       25.00       25.00       25.00       25.00       25.00       25.00       25.00       25.00    
        25.00       25.00       25.00       25.00       25.00       25.00       25.00       25.00       25.00       25.00    
        25.00       25.00       25.00       25.00       25.00       25.00       25.00       25.00       25.00       25.00    
        25.00       25.00       25.00       25.00       25.00       25.00       25.00       25.00       25.00       25.00    
  17    25.00       25.00       25.00       25.00       25.00       25.00       25.00       25.00       25.00       25.00    
        25.00       25.00       25.00       25.00       25.00       25.00       25.00       25.00       25.00       25.00    
        25.00       25.00       25.00       25.00       25.00       25.00       25.00       25.00       25.00       25.00    
        25.00       25.00       25.00       25.00       25.00       25.00       25.00       25.00       25.00       25.00    
  18    25.00       25.00       25.00       25.00       25.00       25.00       25.00       25.00       25.00       25.00    
        25.00       25.00       25.00       25.00       25.00       25.00       25.00       25.00       25.00       25.00    
        25.00       25.00       25.00       25.00       25.00       25.00       25.00       25.00       25.00       25.00    
        25.00       25.00       25.00       25.00       25.00       25.00       25.00       25.00       25.00       25.00    
  19    25.00       25.00       25.00       25.00       25.00       25.00       25.00       25.00       25.00       25.00    
        25.00       25.00       25.00       25.00       25.00       25.00       25.00       25.00       25.00       25.00    
        25.00       25.00       25.00       25.00       25.00       25.00       25.00       25.00       25.00       25.00    
        25.00       25.00       25.00       25.00       25.00       25.00       25.00       25.00       25.00       25.00    
  20    25.00       25.00       25.00       25.00       25.00       25.00       25.00       25.00       25.00       25.00    
        25.00       25.00       25.00       25.00       25.00       25.00       25.00       25.00       25.00       25.00    
        25.00       25.00       25.00       25.00       25.00       25.00       25.00       25.00       25.00       25.00    
        25.00       25.00       25.00       25.00       25.00       25.00       25.00       25.00       25.00       25.00    
  21    25.00       25.00       25.00       25.00       25.00       25.00       25.00       25.00       25.00       25.00    
        25.00       25.00       25.00       25.00       25.00       25.00       25.00       25.00       25.00       25.00    
        25.00       25.00       25.00       25.00       25.00       25.00       25.00       25.00       25.00       25.00    
        25.00       25.00       25.00       25.00       25.00       25.00       25.00       25.00       25.00       25.00    
  22    25.00       25.00       25.00       25.00       25.00       25.00       25.00       25.00       25.00       25.00    
        25.00       25.00       25.00       25.00       25.00       25.00       25.00       25.00       25.00       25.00    
        25.00       25.00       25.00       25.00       25.00       25.00       25.00       25.00       25.00       25.00    
        25.00       25.00       25.00       25.00       25.00       25.00       25.00       25.00       25.00       25.00    
  23    25.00       25.00       25.00       25.00       25.00       25.00       25.00       25.00       25.00       25.00    
        25.00       25.00       25.00       25.00       25.00       25.00       25.00       25.00       25.00       25.00    
        25.00       25.00       25.00       25.00       25.00       25.00       25.00       25.00       25.00       25.00    
        25.00       25.00       25.00       25.00       25.00       25.00       25.00       25.00       25.00       25.00    
  24    25.00       25.00       25.00       25.00       25.00       25.00       25.00       25.00       25.00       25.00    
        25.00       25.00       25.00       25.00       25.00       25.00       25.00       25.00       25.00       25.00    
        25.00       25.00       25.00       25.00       25.00       25.00       25.00       25.00       25.00       25.00    
        25.00       25.00       25.00       25.00       25.00       25.00       25.00       25.00       25.00       25.00    
  25    25.00       25.00       25.00       25.00       25.00       25.00       25.00       25.00       25.00       25.00    
        25.00       25.00       25.00       25.00       25.00       25.00       25.00       25.00       25.00       25.00    
        25.00       25.00       25.00       25.00       25.00       25.00       25.00       25.00       25.00       25.00    
        25.00       25.00       25.00       25.00       25.00       25.00       25.00       25.00       25.00       25.00    
  26    25.00       25.00       25.00       25.00       25.00       25.00       25.00       25.00       25.00       25.00    
        25.00       25.00       25.00       25.00       25.00       25.00       25.00       25.00       25.00       25.00    
        25.00       25.00       25.00       25.00       25.00       25.00       25.00       25.00       25.00       25.00    
        25.00       25.00       25.00       25.00       25.00       25.00       25.00       25.00       25.00       25.00    
  27    25.00       25.00       25.00       25.00       25.00       25.00       25.00       25.00       25.00       25.00    
        25.00       25.00       25.00       25.00       25.00       25.00       25.00       25.00       25.00       25.00    
        25.00       25.00       25.00       25.00       25.00       25.00       25.00       25.00       25.00       25.00    
        25.00       25.00       25.00       25.00       25.00       25.00       25.00       25.00       25.00       25.00    
  28    25.00       25.00       25.00       25.00       25.00       25.00       25.00       25.00       25.00       25.00    
        25.00       25.00       25.00       25.00       25.00       25.00       25.00       25.00       25.00       25.00    
        25.00       25.00       25.00       25.00       25.00       25.00       25.00       25.00       25.00       25.00    
        25.00       25.00       25.00       25.00       25.00       25.00       25.00       25.00       25.00       25.00    
  29    25.00       25.00       25.00       25.00       25.00       25.00       25.00       25.00       25.00       25.00    
        25.00       25.00       25.00       25.00       25.00       25.00       25.00       25.00       25.00       25.00    
        25.00       25.00       25.00       25.00       25.00       25.00       25.00       25.00       25.00       25.00    
        25.00       25.00       25.00       25.00       25.00       25.00       25.00       25.00       25.00       25.00    
  30    25.00       25.00       25.00       25.00       25.00       25.00       25.00       25.00       25.00       25.00    
        25.00       25.00       25.00       25.00       25.00       25.00       25.00       25.00       25.00       25.00    
        25.00       25.00       25.00       25.00       25.00       25.00       25.00       25.00       25.00       25.00    
        25.00       25.00       25.00       25.00       25.00       25.00       25.00       25.00       25.00       25.00    
  31    25.00       25.00       25.00       25.00       25.00       25.00       25.00       25.00       25.00       25.00    
        25.00       25.00       25.00       25.00       25.00       25.00       25.00       25.00       25.00       25.00    
        25.00       25.00       25.00       25.00       25.00       25.00       25.00       25.00       25.00       25.00    
        25.00       25.00       25.00       25.00       25.00       25.00       25.00       25.00       25.00       25.00    
  32    25.00       25.00       25.00       25.00       25.00       25.00       25.00       25.00       25.00       25.00    
        25.00       25.00       25.00       25.00       25.00       25.00       25.00       25.00       25.00       25.00    
        25.00       25.00       25.00       25.00       25.00       25.00       25.00       25.00       25.00       25.00    
        25.00       25.00       25.00       25.00       25.00       25.00       25.00       25.00       25.00       25.00    
  33    25.00       25.00       25.00       25.00       25.00       25.00       25.00       25.00       25.00       25.00    
        25.00       25.00       25.00       25.00       25.00       25.00       25.00       25.00       25.00       25.00    
        25.00       25.00       25.00       25.00       25.00       25.00       25.00       25.00       25.00       25.00    
        25.00       25.00       25.00       25.00       25.00       25.00       25.00       25.00       25.00       25.00    
  34    25.00       25.00       25.00       25.00       25.00       25.00       25.00       25.00       25.00       25.00    
        25.00       25.00       25.00       25.00       25.00       25.00       25.00       25.00       25.00       25.00    
        25.00       25.00       25.00       25.00       25.00       25.00       25.00       25.00       25.00       25.00    
        25.00       25.00       25.00       25.00       25.00       25.00       25.00       25.00       25.00       25.00    
  35    25.00       25.00       25.00       25.00       25.00       25.00       25.00       25.00       25.00       25.00    
        25.00       25.00       25.00       25.00       25.00       25.00       25.00       25.00       25.00       25.00    
        25.00       25.00       25.00       25.00       25.00       25.00       25.00       25.00       25.00       25.00    
        25.00       25.00       25.00       25.00       25.00       25.00       25.00       25.00       25.00       25.00    
  36    25.00       25.00       25.00       25.00       25.00       25.00       25.00       25.00       25.00       25.00    
        25.00       25.00       25.00       25.00       25.00       25.00       25.00       25.00       25.00       25.00    
        25.00       25.00       25.00       25.00       25.00       25.00       25.00       25.00       25.00       25.00    
        25.00       25.00       25.00       25.00       25.00       25.00       25.00       25.00       25.00       25.00    
  37    25.00       25.00       25.00       25.00       25.00       25.00       25.00       25.00       25.00       25.00    
        25.00       25.00       25.00       25.00       25.00       25.00       25.00       25.00       25.00       25.00    
        25.00       25.00       25.00       25.00       25.00       25.00       25.00       25.00       25.00       25.00    
        25.00       25.00       25.00       25.00       25.00       25.00       25.00       25.00       25.00       25.00    
  38    25.00       25.00       25.00       25.00       25.00       25.00       25.00       25.00       25.00       25.00    
        25.00       25.00       25.00       25.00       25.00       25.00       25.00       25.00       25.00       25.00    
        25.00       25.00       25.00       25.00       25.00       25.00       25.00       25.00       25.00       25.00    
        25.00       25.00       25.00       25.00       25.00       25.00       25.00       25.00       25.00       25.00    
  39    25.00       25.00       25.00       25.00       25.00       25.00       25.00       25.00       25.00       25.00    
        25.00       25.00       25.00       25.00       25.00       25.00       25.00       25.00       25.00       25.00    
        25.00       25.00       25.00       25.00       25.00       25.00       25.00       25.00       25.00       25.00    
        25.00       25.00       25.00       25.00       25.00       25.00       25.00       25.00       25.00       25.00    
  40    25.00       25.00       25.00       25.00       25.00       25.00       25.00       25.00       25.00       25.00    
        25.00       25.00       25.00       25.00       25.00       25.00       25.00       25.00       25.00       25.00    
        25.00       25.00       25.00       25.00       25.00       25.00       25.00       25.00       25.00       25.00    
        25.00       25.00       25.00       25.00       25.00       25.00       25.00       25.00       25.00       25.00    
1
              HEAD IN LAYER  11 AT END OF TIME STEP  10 IN STRESS PERIOD    1
  ---------------------------------------------------------------------------

            1           2           3           4           5           6           7           8           9          10
           11          12          13          14          15          16          17          18          19          20
           21          22          23          24          25          26          27          28          29          30
           31          32          33          34          35          36          37          38          39          40
 ........................................................................................................................
   1    39.22       37.52       33.44       30.42       28.32       26.98       26.16       25.66       25.37       25.21    
        25.11       25.06       25.03       25.02       25.01       25.01       25.00       25.00       25.00       25.00    
        25.00       25.00       25.00       25.00       25.00       25.00       25.00       25.00       25.00       25.00    
        25.00       25.00       25.00       25.00       25.00       25.00       25.00       25.00       25.00       25.00    
   2    37.52       36.01       32.42       29.77       27.98       26.80       26.06       25.61       25.35       25.19    
        25.11       25.06       25.03       25.02       25.01       25.00       25.00       25.00       25.00       25.00    
        25.00       25.00       25.00       25.00       25.00       25.00       25.00       25.00       25.00       25.00    
        25.00       25.00       25.00       25.00       25.00       25.00       25.00       25.00       25.00       25.00    
   3    33.44       32.42       30.47       28.73       27.41       26.49       25.90       25.52       25.30       25.17    
        25.09       25.05       25.03       25.01       25.01       25.00       25.00       25.00       25.00       25.00    
        25.00       25.00       25.00       25.00       25.00       25.00       25.00       25.00       25.00       25.00    
        25.00       25.00       25.00       25.00       25.00       25.00       25.00       25.00       25.00       25.00    
   4    30.42       29.77       28.73       27.66       26.79       26.14       25.70       25.42       25.24       25.14    
        25.08       25.04       25.02       25.01       25.01       25.00       25.00       25.00       25.00       25.00    
        25.00       25.00       25.00       25.00       25.00       25.00       25.00       25.00       25.00       25.00    
        25.00       25.00       25.00       25.00       25.00       25.00       25.00       25.00       25.00       25.00    
   5    28.32       27.98       27.41       26.79       26.24       25.82       25.52       25.32       25.19       25.11    
        25.06       25.03       25.02       25.01       25.01       25.00       25.00       25.00       25.00       25.00    
        25.00       25.00       25.00       25.00       25.00       25.00       25.00       25.00       25.00       25.00    
        25.00       25.00       25.00       25.00       25.00       25.00       25.00       25.00       25.00       25.00    
   6    26.98       26.80       26.49       26.14       25.82       25.55       25.36       25.23       25.14       25.08    
        25.05       25.03       25.02       25.01       25.00       25.00       25.00       25.00       25.00       25.00    
        25.00       25.00       25.00       25.00       25.00       25.00       25.00       25.00       25.00       25.00    
        25.00       25.00       25.00       25.00       25.00       25.00       25.00       25.00       25.00       25.00    
   7    26.16       26.06       25.90       25.70       25.52       25.36       25.24       25.15       25.10       25.06    
        25.03       25.02       25.01       25.01       25.00       25.00       25.00       25.00       25.00       25.00    
        25.00       25.00       25.00       25.00       25.00       25.00       25.00       25.00       25.00       25.00    
        25.00       25.00       25.00       25.00       25.00       25.00       25.00       25.00       25.00       25.00    
   8    25.66       25.61       25.52       25.42       25.32       25.23       25.15       25.10       25.06       25.04    
        25.02       25.01       25.01       25.00       25.00       25.00       25.00       25.00       25.00       25.00    
        25.00       25.00       25.00       25.00       25.00       25.00       25.00       25.00       25.00       25.00    
        25.00       25.00       25.00       25.00       25.00       25.00       25.00       25.00       25.00       25.00    
   9    25.37       25.35       25.30       25.24       25.19       25.14       25.10       25.06       25.04       25.03    
        25.02       25.01       25.01       25.00       25.00       25.00       25.00       25.00       25.00       25.00    
        25.00       25.00       25.00       25.00       25.00       25.00       25.00       25.00       25.00       25.00    
        25.00       25.00       25.00       25.00       25.00       25.00       25.00       25.00       25.00       25.00    
  10    25.21       25.19       25.17       25.14       25.11       25.08       25.06       25.04       25.03       25.02    
        25.01       25.01       25.00       25.00       25.00       25.00       25.00       25.00       25.00       25.00    
        25.00       25.00       25.00       25.00       25.00       25.00       25.00       25.00       25.00       25.00    
        25.00       25.00       25.00       25.00       25.00       25.00       25.00       25.00       25.00       25.00    
  11    25.11       25.11       25.09       25.08       25.06       25.05       25.03       25.02       25.02       25.01    
        25.01       25.00       25.00       25.00       25.00       25.00       25.00       25.00       25.00       25.00    
        25.00       25.00       25.00       25.00       25.00       25.00       25.00       25.00       25.00       25.00    
        25.00       25.00       25.00       25.00       25.00       25.00       25.00       25.00       25.00       25.00    
  12    25.06       25.06       25.05       25.04       25.03       25.03       25.02       25.01       25.01       25.01    
        25.00       25.00       25.00       25.00       25.00       25.00       25.00       25.00       25.00       25.00    
        25.00       25.00       25.00       25.00       25.00       25.00       25.00       25.00       25.00       25.00    
        25.00       25.00       25.00       25.00       25.00       25.00       25.00       25.00       25.00       25.00    
  13    25.03       25.03       25.03       25.02       25.02       25.02       25.01       25.01       25.01       25.00    
        25.00       25.00       25.00       25.00       25.00       25.00       25.00       25.00       25.00       25.00    
        25.00       25.00       25.00       25.00       25.00       25.00       25.00       25.00       25.00       25.00    
        25.00       25.00       25.00       25.00       25.00       25.00       25.00       25.00       25.00       25.00    
  14    25.02       25.02       25.01       25.01       25.01       25.01       25.01       25.00       25.00       25.00    
        25.00       25.00       25.00       25.00       25.00       25.00       25.00       25.00       25.00       25.00    
        25.00       25.00       25.00       25.00       25.00       25.00       25.00       25.00       25.00       25.00    
        25.00       25.00       25.00       25.00       25.00       25.00       25.00       25.00       25.00       25.00    
  15    25.01       25.01       25.01       25.01       25.01       25.00       25.00       25.00       25.00       25.00    
        25.00       25.00       25.00       25.00       25.00       25.00       25.00       25.00       25.00       25.00    
        25.00       25.00       25.00       25.00       25.00       25.00       25.00       25.00       25.00       25.00    
        25.00       25.00       25.00       25.00       25.00       25.00       25.00       25.00       25.00       25.00    
  16    25.01       25.00       25.00       25.00       25.00       25.00       25.00       25.00       25.00       25.00    
        25.00       25.00       25.00       25.00       25.00       25.00       25.00       25.00       25.00       25.00    
        25.00       25.00       25.00       25.00       25.00       25.00       25.00       25.00       25.00       25.00    
        25.00       25.00       25.00       25.00       25.00       25.00       25.00       25.00       25.00       25.00    
  17    25.00       25.00       25.00       25.00       25.00       25.00       25.00       25.00       25.00       25.00    
        25.00       25.00       25.00       25.00       25.00       25.00       25.00       25.00       25.00       25.00    
        25.00       25.00       25.00       25.00       25.00       25.00       25.00       25.00       25.00       25.00    
        25.00       25.00       25.00       25.00       25.00       25.00       25.00       25.00       25.00       25.00    
  18    25.00       25.00       25.00       25.00       25.00       25.00       25.00       25.00       25.00       25.00    
        25.00       25.00       25.00       25.00       25.00       25.00       25.00       25.00       25.00       25.00    
        25.00       25.00       25.00       25.00       25.00       25.00       25.00       25.00       25.00       25.00    
        25.00       25.00       25.00       25.00       25.00       25.00       25.00       25.00       25.00       25.00    
  19    25.00       25.00       25.00       25.00       25.00       25.00       25.00       25.00       25.00       25.00    
        25.00       25.00       25.00       25.00       25.00       25.00       25.00       25.00       25.00       25.00    
        25.00       25.00       25.00       25.00       25.00       25.00       25.00       25.00       25.00       25.00    
        25.00       25.00       25.00       25.00       25.00       25.00       25.00       25.00       25.00       25.00    
  20    25.00       25.00       25.00       25.00       25.00       25.00       25.00       25.00       25.00       25.00    
        25.00       25.00       25.00       25.00       25.00       25.00       25.00       25.00       25.00       25.00    
        25.00       25.00       25.00       25.00       25.00       25.00       25.00       25.00       25.00       25.00    
        25.00       25.00       25.00       25.00       25.00       25.00       25.00       25.00       25.00       25.00    
  21    25.00       25.00       25.00       25.00       25.00       25.00       25.00       25.00       25.00       25.00    
        25.00       25.00       25.00       25.00       25.00       25.00       25.00       25.00       25.00       25.00    
        25.00       25.00       25.00       25.00       25.00       25.00       25.00       25.00       25.00       25.00    
        25.00       25.00       25.00       25.00       25.00       25.00       25.00       25.00       25.00       25.00    
  22    25.00       25.00       25.00       25.00       25.00       25.00       25.00       25.00       25.00       25.00    
        25.00       25.00       25.00       25.00       25.00       25.00       25.00       25.00       25.00       25.00    
        25.00       25.00       25.00       25.00       25.00       25.00       25.00       25.00       25.00       25.00    
        25.00       25.00       25.00       25.00       25.00       25.00       25.00       25.00       25.00       25.00    
  23    25.00       25.00       25.00       25.00       25.00       25.00       25.00       25.00       25.00       25.00    
        25.00       25.00       25.00       25.00       25.00       25.00       25.00       25.00       25.00       25.00    
        25.00       25.00       25.00       25.00       25.00       25.00       25.00       25.00       25.00       25.00    
        25.00       25.00       25.00       25.00       25.00       25.00       25.00       25.00       25.00       25.00    
  24    25.00       25.00       25.00       25.00       25.00       25.00       25.00       25.00       25.00       25.00    
        25.00       25.00       25.00       25.00       25.00       25.00       25.00       25.00       25.00       25.00    
        25.00       25.00       25.00       25.00       25.00       25.00       25.00       25.00       25.00       25.00    
        25.00       25.00       25.00       25.00       25.00       25.00       25.00       25.00       25.00       25.00    
  25    25.00       25.00       25.00       25.00       25.00       25.00       25.00       25.00       25.00       25.00    
        25.00       25.00       25.00       25.00       25.00       25.00       25.00       25.00       25.00       25.00    
        25.00       25.00       25.00       25.00       25.00       25.00       25.00       25.00       25.00       25.00    
        25.00       25.00       25.00       25.00       25.00       25.00       25.00       25.00       25.00       25.00    
  26    25.00       25.00       25.00       25.00       25.00       25.00       25.00       25.00       25.00       25.00    
        25.00       25.00       25.00       25.00       25.00       25.00       25.00       25.00       25.00       25.00    
        25.00       25.00       25.00       25.00       25.00       25.00       25.00       25.00       25.00       25.00    
        25.00       25.00       25.00       25.00       25.00       25.00       25.00       25.00       25.00       25.00    
  27    25.00       25.00       25.00       25.00       25.00       25.00       25.00       25.00       25.00       25.00    
        25.00       25.00       25.00       25.00       25.00       25.00       25.00       25.00       25.00       25.00    
        25.00       25.00       25.00       25.00       25.00       25.00       25.00       25.00       25.00       25.00    
        25.00       25.00       25.00       25.00       25.00       25.00       25.00       25.00       25.00       25.00    
  28    25.00       25.00       25.00       25.00       25.00       25.00       25.00       25.00       25.00       25.00    
        25.00       25.00       25.00       25.00       25.00       25.00       25.00       25.00       25.00       25.00    
        25.00       25.00       25.00       25.00       25.00       25.00       25.00       25.00       25.00       25.00    
        25.00       25.00       25.00       25.00       25.00       25.00       25.00       25.00       25.00       25.00    
  29    25.00       25.00       25.00       25.00       25.00       25.00       25.00       25.00       25.00       25.00    
        25.00       25.00       25.00       25.00       25.00       25.00       25.00       25.00       25.00       25.00    
        25.00       25.00       25.00       25.00       25.00       25.00       25.00       25.00       25.00       25.00    
        25.00       25.00       25.00       25.00       25.00       25.00       25.00       25.00       25.00       25.00    
  30    25.00       25.00       25.00       25.00       25.00       25.00       25.00       25.00       25.00       25.00    
        25.00       25.00       25.00       25.00       25.00       25.00       25.00       25.00       25.00       25.00    
        25.00       25.00       25.00       25.00       25.00       25.00       25.00       25.00       25.00       25.00    
        25.00       25.00       25.00       25.00       25.00       25.00       25.00       25.00       25.00       25.00    
  31    25.00       25.00       25.00       25.00       25.00       25.00       25.00       25.00       25.00       25.00    
        25.00       25.00       25.00       25.00       25.00       25.00       25.00       25.00       25.00       25.00    
        25.00       25.00       25.00       25.00       25.00       25.00       25.00       25.00       25.00       25.00    
        25.00       25.00       25.00       25.00       25.00       25.00       25.00       25.00       25.00       25.00    
  32    25.00       25.00       25.00       25.00       25.00       25.00       25.00       25.00       25.00       25.00    
        25.00       25.00       25.00       25.00       25.00       25.00       25.00       25.00       25.00       25.00    
        25.00       25.00       25.00       25.00       25.00       25.00       25.00       25.00       25.00       25.00    
        25.00       25.00       25.00       25.00       25.00       25.00       25.00       25.00       25.00       25.00    
  33    25.00       25.00       25.00       25.00       25.00       25.00       25.00       25.00       25.00       25.00    
        25.00       25.00       25.00       25.00       25.00       25.00       25.00       25.00       25.00       25.00    
        25.00       25.00       25.00       25.00       25.00       25.00       25.00       25.00       25.00       25.00    
        25.00       25.00       25.00       25.00       25.00       25.00       25.00       25.00       25.00       25.00    
  34    25.00       25.00       25.00       25.00       25.00       25.00       25.00       25.00       25.00       25.00    
        25.00       25.00       25.00       25.00       25.00       25.00       25.00       25.00       25.00       25.00    
        25.00       25.00       25.00       25.00       25.00       25.00       25.00       25.00       25.00       25.00    
        25.00       25.00       25.00       25.00       25.00       25.00       25.00       25.00       25.00       25.00    
  35    25.00       25.00       25.00       25.00       25.00       25.00       25.00       25.00       25.00       25.00    
        25.00       25.00       25.00       25.00       25.00       25.00       25.00       25.00       25.00       25.00    
        25.00       25.00       25.00       25.00       25.00       25.00       25.00       25.00       25.00       25.00    
        25.00       25.00       25.00       25.00       25.00       25.00       25.00       25.00       25.00       25.00    
  36    25.00       25.00       25.00       25.00       25.00       25.00       25.00       25.00       25.00       25.00    
        25.00       25.00       25.00       25.00       25.00       25.00       25.00       25.00       25.00       25.00    
        25.00       25.00       25.00       25.00       25.00       25.00       25.00       25.00       25.00       25.00    
        25.00       25.00       25.00       25.00       25.00       25.00       25.00       25.00       25.00       25.00    
  37    25.00       25.00       25.00       25.00       25.00       25.00       25.00       25.00       25.00       25.00    
        25.00       25.00       25.00       25.00       25.00       25.00       25.00       25.00       25.00       25.00    
        25.00       25.00       25.00       25.00       25.00       25.00       25.00       25.00       25.00       25.00    
        25.00       25.00       25.00       25.00       25.00       25.00       25.00       25.00       25.00       25.00    
  38    25.00       25.00       25.00       25.00       25.00       25.00       25.00       25.00       25.00       25.00    
        25.00       25.00       25.00       25.00       25.00       25.00       25.00       25.00       25.00       25.00    
        25.00       25.00       25.00       25.00       25.00       25.00       25.00       25.00       25.00       25.00    
        25.00       25.00       25.00       25.00       25.00       25.00       25.00       25.00       25.00       25.00    
  39    25.00       25.00       25.00       25.00       25.00       25.00       25.00       25.00       25.00       25.00    
        25.00       25.00       25.00       25.00       25.00       25.00       25.00       25.00       25.00       25.00    
        25.00       25.00       25.00       25.00       25.00       25.00       25.00       25.00       25.00       25.00    
        25.00       25.00       25.00       25.00       25.00       25.00       25.00       25.00       25.00       25.00    
  40    25.00       25.00       25.00       25.00       25.00       25.00       25.00       25.00       25.00       25.00    
        25.00       25.00       25.00       25.00       25.00       25.00       25.00       25.00       25.00       25.00    
        25.00       25.00       25.00       25.00       25.00       25.00       25.00       25.00       25.00       25.00    
        25.00       25.00       25.00       25.00       25.00       25.00       25.00       25.00       25.00       25.00    
1
              HEAD IN LAYER  12 AT END OF TIME STEP  10 IN STRESS PERIOD    1
  ---------------------------------------------------------------------------

            1           2           3           4           5           6           7           8           9          10
           11          12          13          14          15          16          17          18          19          20
           21          22          23          24          25          26          27          28          29          30
           31          32          33          34          35          36          37          38          39          40
 ........................................................................................................................
   1    38.89       37.19       33.41       30.44       28.36       27.01       26.18       25.68       25.38       25.21    
        25.12       25.06       25.03       25.02       25.01       25.01       25.00       25.00       25.00       25.00    
        25.00       25.00       25.00       25.00       25.00       25.00       25.00       25.00       25.00       25.00    
        25.00       25.00       25.00       25.00       25.00       25.00       25.00       25.00       25.00       25.00    
   2    37.19       35.69       32.39       29.80       28.01       26.83       26.08       25.63       25.35       25.20    
        25.11       25.06       25.03       25.02       25.01       25.01       25.00       25.00       25.00       25.00    
        25.00       25.00       25.00       25.00       25.00       25.00       25.00       25.00       25.00       25.00    
        25.00       25.00       25.00       25.00       25.00       25.00       25.00       25.00       25.00       25.00    
   3    33.41       32.39       30.50       28.76       27.44       26.52       25.91       25.54       25.31       25.17    
        25.10       25.05       25.03       25.02       25.01       25.00       25.00       25.00       25.00       25.00    
        25.00       25.00       25.00       25.00       25.00       25.00       25.00       25.00       25.00       25.00    
        25.00       25.00       25.00       25.00       25.00       25.00       25.00       25.00       25.00       25.00    
   4    30.44       29.80       28.76       27.70       26.81       26.16       25.72       25.43       25.25       25.14    
        25.08       25.04       25.02       25.01       25.01       25.00       25.00       25.00       25.00       25.00    
        25.00       25.00       25.00       25.00       25.00       25.00       25.00       25.00       25.00       25.00    
        25.00       25.00       25.00       25.00       25.00       25.00       25.00       25.00       25.00       25.00    
   5    28.36       28.01       27.44       26.81       26.26       25.83       25.53       25.32       25.19       25.11    
        25.06       25.04       25.02       25.01       25.01       25.00       25.00       25.00       25.00       25.00    
        25.00       25.00       25.00       25.00       25.00       25.00       25.00       25.00       25.00       25.00    
        25.00       25.00       25.00       25.00       25.00       25.00       25.00       25.00       25.00       25.00    
   6    27.01       26.83       26.52       26.16       25.83       25.57       25.37       25.23       25.14       25.08    
        25.05       25.03       25.02       25.01       25.01       25.00       25.00       25.00       25.00       25.00    
        25.00       25.00       25.00       25.00       25.00       25.00       25.00       25.00       25.00       25.00    
        25.00       25.00       25.00       25.00       25.00       25.00       25.00       25.00       25.00       25.00    
   7    26.18       26.08       25.91       25.72       25.53       25.37       25.25       25.16       25.10       25.06    
        25.04       25.02       25.01       25.01       25.00       25.00       25.00       25.00       25.00       25.00    
        25.00       25.00       25.00       25.00       25.00       25.00       25.00       25.00       25.00       25.00    
        25.00       25.00       25.00       25.00       25.00       25.00       25.00       25.00       25.00       25.00    
   8    25.68       25.63       25.54       25.43       25.32       25.23       25.16       25.10       25.07       25.04    
        25.02       25.01       25.01       25.01       25.00       25.00       25.00       25.00       25.00       25.00    
        25.00       25.00       25.00       25.00       25.00       25.00       25.00       25.00       25.00       25.00    
        25.00       25.00       25.00       25.00       25.00       25.00       25.00       25.00       25.00       25.00    
   9    25.38       25.35       25.31       25.25       25.19       25.14       25.10       25.07       25.04       25.03    
        25.02       25.01       25.01       25.00       25.00       25.00       25.00       25.00       25.00       25.00    
        25.00       25.00       25.00       25.00       25.00       25.00       25.00       25.00       25.00       25.00    
        25.00       25.00       25.00       25.00       25.00       25.00       25.00       25.00       25.00       25.00    
  10    25.21       25.20       25.17       25.14       25.11       25.08       25.06       25.04       25.03       25.02    
        25.01       25.01       25.00       25.00       25.00       25.00       25.00       25.00       25.00       25.00    
        25.00       25.00       25.00       25.00       25.00       25.00       25.00       25.00       25.00       25.00    
        25.00       25.00       25.00       25.00       25.00       25.00       25.00       25.00       25.00       25.00    
  11    25.12       25.11       25.10       25.08       25.06       25.05       25.04       25.02       25.02       25.01    
        25.01       25.00       25.00       25.00       25.00       25.00       25.00       25.00       25.00       25.00    
        25.00       25.00       25.00       25.00       25.00       25.00       25.00       25.00       25.00       25.00    
        25.00       25.00       25.00       25.00       25.00       25.00       25.00       25.00       25.00       25.00    
  12    25.06       25.06       25.05       25.04       25.04       25.03       25.02       25.01       25.01       25.01    
        25.00       25.00       25.00       25.00       25.00       25.00       25.00       25.00       25.00       25.00    
        25.00       25.00       25.00       25.00       25.00       25.00       25.00       25.00       25.00       25.00    
        25.00       25.00       25.00       25.00       25.00       25.00       25.00       25.00       25.00       25.00    
  13    25.03       25.03       25.03       25.02       25.02       25.02       25.01       25.01       25.01       25.00    
        25.00       25.00       25.00       25.00       25.00       25.00       25.00       25.00       25.00       25.00    
        25.00       25.00       25.00       25.00       25.00       25.00       25.00       25.00       25.00       25.00    
        25.00       25.00       25.00       25.00       25.00       25.00       25.00       25.00       25.00       25.00    
  14    25.02       25.02       25.02       25.01       25.01       25.01       25.01       25.01       25.00       25.00    
        25.00       25.00       25.00       25.00       25.00       25.00       25.00       25.00       25.00       25.00    
        25.00       25.00       25.00       25.00       25.00       25.00       25.00       25.00       25.00       25.00    
        25.00       25.00       25.00       25.00       25.00       25.00       25.00       25.00       25.00       25.00    
  15    25.01       25.01       25.01       25.01       25.01       25.01       25.00       25.00       25.00       25.00    
        25.00       25.00       25.00       25.00       25.00       25.00       25.00       25.00       25.00       25.00    
        25.00       25.00       25.00       25.00       25.00       25.00       25.00       25.00       25.00       25.00    
        25.00       25.00       25.00       25.00       25.00       25.00       25.00       25.00       25.00       25.00    
  16    25.01       25.01       25.00       25.00       25.00       25.00       25.00       25.00       25.00       25.00    
        25.00       25.00       25.00       25.00       25.00       25.00       25.00       25.00       25.00       25.00    
        25.00       25.00       25.00       25.00       25.00       25.00       25.00       25.00       25.00       25.00    
        25.00       25.00       25.00       25.00       25.00       25.00       25.00       25.00       25.00       25.00    
  17    25.00       25.00       25.00       25.00       25.00       25.00       25.00       25.00       25.00       25.00    
        25.00       25.00       25.00       25.00       25.00       25.00       25.00       25.00       25.00       25.00    
        25.00       25.00       25.00       25.00       25.00       25.00       25.00       25.00       25.00       25.00    
        25.00       25.00       25.00       25.00       25.00       25.00       25.00       25.00       25.00       25.00    
  18    25.00       25.00       25.00       25.00       25.00       25.00       25.00       25.00       25.00       25.00    
        25.00       25.00       25.00       25.00       25.00       25.00       25.00       25.00       25.00       25.00    
        25.00       25.00       25.00       25.00       25.00       25.00       25.00       25.00       25.00       25.00    
        25.00       25.00       25.00       25.00       25.00       25.00       25.00       25.00       25.00       25.00    
  19    25.00       25.00       25.00       25.00       25.00       25.00       25.00       25.00       25.00       25.00    
        25.00       25.00       25.00       25.00       25.00       25.00       25.00       25.00       25.00       25.00    
        25.00       25.00       25.00       25.00       25.00       25.00       25.00       25.00       25.00       25.00    
        25.00       25.00       25.00       25.00       25.00       25.00       25.00       25.00       25.00       25.00    
  20    25.00       25.00       25.00       25.00       25.00       25.00       25.00       25.00       25.00       25.00    
        25.00       25.00       25.00       25.00       25.00       25.00       25.00       25.00       25.00       25.00    
        25.00       25.00       25.00       25.00       25.00       25.00       25.00       25.00       25.00       25.00    
        25.00       25.00       25.00       25.00       25.00       25.00       25.00       25.00       25.00       25.00    
  21    25.00       25.00       25.00       25.00       25.00       25.00       25.00       25.00       25.00       25.00    
        25.00       25.00       25.00       25.00       25.00       25.00       25.00       25.00       25.00       25.00    
        25.00       25.00       25.00       25.00       25.00       25.00       25.00       25.00       25.00       25.00    
        25.00       25.00       25.00       25.00       25.00       25.00       25.00       25.00       25.00       25.00    
  22    25.00       25.00       25.00       25.00       25.00       25.00       25.00       25.00       25.00       25.00    
        25.00       25.00       25.00       25.00       25.00       25.00       25.00       25.00       25.00       25.00    
        25.00       25.00       25.00       25.00       25.00       25.00       25.00       25.00       25.00       25.00    
        25.00       25.00       25.00       25.00       25.00       25.00       25.00       25.00       25.00       25.00    
  23    25.00       25.00       25.00       25.00       25.00       25.00       25.00       25.00       25.00       25.00    
        25.00       25.00       25.00       25.00       25.00       25.00       25.00       25.00       25.00       25.00    
        25.00       25.00       25.00       25.00       25.00       25.00       25.00       25.00       25.00       25.00    
        25.00       25.00       25.00       25.00       25.00       25.00       25.00       25.00       25.00       25.00    
  24    25.00       25.00       25.00       25.00       25.00       25.00       25.00       25.00       25.00       25.00    
        25.00       25.00       25.00       25.00       25.00       25.00       25.00       25.00       25.00       25.00    
        25.00       25.00       25.00       25.00       25.00       25.00       25.00       25.00       25.00       25.00    
        25.00       25.00       25.00       25.00       25.00       25.00       25.00       25.00       25.00       25.00    
  25    25.00       25.00       25.00       25.00       25.00       25.00       25.00       25.00       25.00       25.00    
        25.00       25.00       25.00       25.00       25.00       25.00       25.00       25.00       25.00       25.00    
        25.00       25.00       25.00       25.00       25.00       25.00       25.00       25.00       25.00       25.00    
        25.00       25.00       25.00       25.00       25.00       25.00       25.00       25.00       25.00       25.00    
  26    25.00       25.00       25.00       25.00       25.00       25.00       25.00       25.00       25.00       25.00    
        25.00       25.00       25.00       25.00       25.00       25.00       25.00       25.00       25.00       25.00    
        25.00       25.00       25.00       25.00       25.00       25.00       25.00       25.00       25.00       25.00    
        25.00       25.00       25.00       25.00       25.00       25.00       25.00       25.00       25.00       25.00    
  27    25.00       25.00       25.00       25.00       25.00       25.00       25.00       25.00       25.00       25.00    
        25.00       25.00       25.00       25.00       25.00       25.00       25.00       25.00       25.00       25.00    
        25.00       25.00       25.00       25.00       25.00       25.00       25.00       25.00       25.00       25.00    
        25.00       25.00       25.00       25.00       25.00       25.00       25.00       25.00       25.00       25.00    
  28    25.00       25.00       25.00       25.00       25.00       25.00       25.00       25.00       25.00       25.00    
        25.00       25.00       25.00       25.00       25.00       25.00       25.00       25.00       25.00       25.00    
        25.00       25.00       25.00       25.00       25.00       25.00       25.00       25.00       25.00       25.00    
        25.00       25.00       25.00       25.00       25.00       25.00       25.00       25.00       25.00       25.00    
  29    25.00       25.00       25.00       25.00       25.00       25.00       25.00       25.00       25.00       25.00    
        25.00       25.00       25.00       25.00       25.00       25.00       25.00       25.00       25.00       25.00    
        25.00       25.00       25.00       25.00       25.00       25.00       25.00       25.00       25.00       25.00    
        25.00       25.00       25.00       25.00       25.00       25.00       25.00       25.00       25.00       25.00    
  30    25.00       25.00       25.00       25.00       25.00       25.00       25.00       25.00       25.00       25.00    
        25.00       25.00       25.00       25.00       25.00       25.00       25.00       25.00       25.00       25.00    
        25.00       25.00       25.00       25.00       25.00       25.00       25.00       25.00       25.00       25.00    
        25.00       25.00       25.00       25.00       25.00       25.00       25.00       25.00       25.00       25.00    
  31    25.00       25.00       25.00       25.00       25.00       25.00       25.00       25.00       25.00       25.00    
        25.00       25.00       25.00       25.00       25.00       25.00       25.00       25.00       25.00       25.00    
        25.00       25.00       25.00       25.00       25.00       25.00       25.00       25.00       25.00       25.00    
        25.00       25.00       25.00       25.00       25.00       25.00       25.00       25.00       25.00       25.00    
  32    25.00       25.00       25.00       25.00       25.00       25.00       25.00       25.00       25.00       25.00    
        25.00       25.00       25.00       25.00       25.00       25.00       25.00       25.00       25.00       25.00    
        25.00       25.00       25.00       25.00       25.00       25.00       25.00       25.00       25.00       25.00    
        25.00       25.00       25.00       25.00       25.00       25.00       25.00       25.00       25.00       25.00    
  33    25.00       25.00       25.00       25.00       25.00       25.00       25.00       25.00       25.00       25.00    
        25.00       25.00       25.00       25.00       25.00       25.00       25.00       25.00       25.00       25.00    
        25.00       25.00       25.00       25.00       25.00       25.00       25.00       25.00       25.00       25.00    
        25.00       25.00       25.00       25.00       25.00       25.00       25.00       25.00       25.00       25.00    
  34    25.00       25.00       25.00       25.00       25.00       25.00       25.00       25.00       25.00       25.00    
        25.00       25.00       25.00       25.00       25.00       25.00       25.00       25.00       25.00       25.00    
        25.00       25.00       25.00       25.00       25.00       25.00       25.00       25.00       25.00       25.00    
        25.00       25.00       25.00       25.00       25.00       25.00       25.00       25.00       25.00       25.00    
  35    25.00       25.00       25.00       25.00       25.00       25.00       25.00       25.00       25.00       25.00    
        25.00       25.00       25.00       25.00       25.00       25.00       25.00       25.00       25.00       25.00    
        25.00       25.00       25.00       25.00       25.00       25.00       25.00       25.00       25.00       25.00    
        25.00       25.00       25.00       25.00       25.00       25.00       25.00       25.00       25.00       25.00    
  36    25.00       25.00       25.00       25.00       25.00       25.00       25.00       25.00       25.00       25.00    
        25.00       25.00       25.00       25.00       25.00       25.00       25.00       25.00       25.00       25.00    
        25.00       25.00       25.00       25.00       25.00       25.00       25.00       25.00       25.00       25.00    
        25.00       25.00       25.00       25.00       25.00       25.00       25.00       25.00       25.00       25.00    
  37    25.00       25.00       25.00       25.00       25.00       25.00       25.00       25.00       25.00       25.00    
        25.00       25.00       25.00       25.00       25.00       25.00       25.00       25.00       25.00       25.00    
        25.00       25.00       25.00       25.00       25.00       25.00       25.00       25.00       25.00       25.00    
        25.00       25.00       25.00       25.00       25.00       25.00       25.00       25.00       25.00       25.00    
  38    25.00       25.00       25.00       25.00       25.00       25.00       25.00       25.00       25.00       25.00    
        25.00       25.00       25.00       25.00       25.00       25.00       25.00       25.00       25.00       25.00    
        25.00       25.00       25.00       25.00       25.00       25.00       25.00       25.00       25.00       25.00    
        25.00       25.00       25.00       25.00       25.00       25.00       25.00       25.00       25.00       25.00    
  39    25.00       25.00       25.00       25.00       25.00       25.00       25.00       25.00       25.00       25.00    
        25.00       25.00       25.00       25.00       25.00       25.00       25.00       25.00       25.00       25.00    
        25.00       25.00       25.00       25.00       25.00       25.00       25.00       25.00       25.00       25.00    
        25.00       25.00       25.00       25.00       25.00       25.00       25.00       25.00       25.00       25.00    
  40    25.00       25.00       25.00       25.00       25.00       25.00       25.00       25.00       25.00       25.00    
        25.00       25.00       25.00       25.00       25.00       25.00       25.00       25.00       25.00       25.00    
        25.00       25.00       25.00       25.00       25.00       25.00       25.00       25.00       25.00       25.00    
        25.00       25.00       25.00       25.00       25.00       25.00       25.00       25.00       25.00       25.00    
1
              HEAD IN LAYER  13 AT END OF TIME STEP  10 IN STRESS PERIOD    1
  ---------------------------------------------------------------------------

            1           2           3           4           5           6           7           8           9          10
           11          12          13          14          15          16          17          18          19          20
           21          22          23          24          25          26          27          28          29          30
           31          32          33          34          35          36          37          38          39          40
 ........................................................................................................................
   1    38.67       36.97       33.38       30.45       28.38       27.03       26.19       25.69       25.39       25.22    
        25.12       25.06       25.03       25.02       25.01       25.01       25.00       25.00       25.00       25.00    
        25.00       25.00       25.00       25.00       25.00       25.00       25.00       25.00       25.00       25.00    
        25.00       25.00       25.00       25.00       25.00       25.00       25.00       25.00       25.00       25.00    
   2    36.97       35.48       32.37       29.82       28.04       26.85       26.10       25.63       25.36       25.20    
        25.11       25.06       25.03       25.02       25.01       25.01       25.00       25.00       25.00       25.00    
        25.00       25.00       25.00       25.00       25.00       25.00       25.00       25.00       25.00       25.00    
        25.00       25.00       25.00       25.00       25.00       25.00       25.00       25.00       25.00       25.00    
   3    33.38       32.37       30.51       28.78       27.46       26.53       25.93       25.54       25.31       25.18    
        25.10       25.05       25.03       25.02       25.01       25.00       25.00       25.00       25.00       25.00    
        25.00       25.00       25.00       25.00       25.00       25.00       25.00       25.00       25.00       25.00    
        25.00       25.00       25.00       25.00       25.00       25.00       25.00       25.00       25.00       25.00    
   4    30.45       29.82       28.78       27.72       26.83       26.18       25.73       25.44       25.26       25.15    
        25.08       25.05       25.02       25.01       25.01       25.00       25.00       25.00       25.00       25.00    
        25.00       25.00       25.00       25.00       25.00       25.00       25.00       25.00       25.00       25.00    
        25.00       25.00       25.00       25.00       25.00       25.00       25.00       25.00       25.00       25.00    
   5    28.38       28.04       27.46       26.83       26.28       25.85       25.54       25.33       25.20       25.11    
        25.07       25.04       25.02       25.01       25.01       25.00       25.00       25.00       25.00       25.00    
        25.00       25.00       25.00       25.00       25.00       25.00       25.00       25.00       25.00       25.00    
        25.00       25.00       25.00       25.00       25.00       25.00       25.00       25.00       25.00       25.00    
   6    27.03       26.85       26.53       26.18       25.85       25.58       25.38       25.24       25.14       25.09    
        25.05       25.03       25.02       25.01       25.01       25.00       25.00       25.00       25.00       25.00    
        25.00       25.00       25.00       25.00       25.00       25.00       25.00       25.00       25.00       25.00    
        25.00       25.00       25.00       25.00       25.00       25.00       25.00       25.00       25.00       25.00    
   7    26.19       26.10       25.93       25.73       25.54       25.38       25.25       25.16       25.10       25.06    
        25.04       25.02       25.01       25.01       25.00       25.00       25.00       25.00       25.00       25.00    
        25.00       25.00       25.00       25.00       25.00       25.00       25.00       25.00       25.00       25.00    
        25.00       25.00       25.00       25.00       25.00       25.00       25.00       25.00       25.00       25.00    
   8    25.69       25.63       25.54       25.44       25.33       25.24       25.16       25.11       25.07       25.04    
        25.03       25.01       25.01       25.01       25.00       25.00       25.00       25.00       25.00       25.00    
        25.00       25.00       25.00       25.00       25.00       25.00       25.00       25.00       25.00       25.00    
        25.00       25.00       25.00       25.00       25.00       25.00       25.00       25.00       25.00       25.00    
   9    25.39       25.36       25.31       25.26       25.20       25.14       25.10       25.07       25.04       25.03    
        25.02       25.01       25.01       25.00       25.00       25.00       25.00       25.00       25.00       25.00    
        25.00       25.00       25.00       25.00       25.00       25.00       25.00       25.00       25.00       25.00    
        25.00       25.00       25.00       25.00       25.00       25.00       25.00       25.00       25.00       25.00    
  10    25.22       25.20       25.18       25.15       25.11       25.09       25.06       25.04       25.03       25.02    
        25.01       25.01       25.00       25.00       25.00       25.00       25.00       25.00       25.00       25.00    
        25.00       25.00       25.00       25.00       25.00       25.00       25.00       25.00       25.00       25.00    
        25.00       25.00       25.00       25.00       25.00       25.00       25.00       25.00       25.00       25.00    
  11    25.12       25.11       25.10       25.08       25.07       25.05       25.04       25.03       25.02       25.01    
        25.01       25.00       25.00       25.00       25.00       25.00       25.00       25.00       25.00       25.00    
        25.00       25.00       25.00       25.00       25.00       25.00       25.00       25.00       25.00       25.00    
        25.00       25.00       25.00       25.00       25.00       25.00       25.00       25.00       25.00       25.00    
  12    25.06       25.06       25.05       25.05       25.04       25.03       25.02       25.01       25.01       25.01    
        25.00       25.00       25.00       25.00       25.00       25.00       25.00       25.00       25.00       25.00    
        25.00       25.00       25.00       25.00       25.00       25.00       25.00       25.00       25.00       25.00    
        25.00       25.00       25.00       25.00       25.00       25.00       25.00       25.00       25.00       25.00    
  13    25.03       25.03       25.03       25.02       25.02       25.02       25.01       25.01       25.01       25.00    
        25.00       25.00       25.00       25.00       25.00       25.00       25.00       25.00       25.00       25.00    
        25.00       25.00       25.00       25.00       25.00       25.00       25.00       25.00       25.00       25.00    
        25.00       25.00       25.00       25.00       25.00       25.00       25.00       25.00       25.00       25.00    
  14    25.02       25.02       25.02       25.01       25.01       25.01       25.01       25.01       25.00       25.00    
        25.00       25.00       25.00       25.00       25.00       25.00       25.00       25.00       25.00       25.00    
        25.00       25.00       25.00       25.00       25.00       25.00       25.00       25.00       25.00       25.00    
        25.00       25.00       25.00       25.00       25.00       25.00       25.00       25.00       25.00       25.00    
  15    25.01       25.01       25.01       25.01       25.01       25.01       25.00       25.00       25.00       25.00    
        25.00       25.00       25.00       25.00       25.00       25.00       25.00       25.00       25.00       25.00    
        25.00       25.00       25.00       25.00       25.00       25.00       25.00       25.00       25.00       25.00    
        25.00       25.00       25.00       25.00       25.00       25.00       25.00       25.00       25.00       25.00    
  16    25.01       25.01       25.00       25.00       25.00       25.00       25.00       25.00       25.00       25.00    
        25.00       25.00       25.00       25.00       25.00       25.00       25.00       25.00       25.00       25.00    
        25.00       25.00       25.00       25.00       25.00       25.00       25.00       25.00       25.00       25.00    
        25.00       25.00       25.00       25.00       25.00       25.00       25.00       25.00       25.00       25.00    
  17    25.00       25.00       25.00       25.00       25.00       25.00       25.00       25.00       25.00       25.00    
        25.00       25.00       25.00       25.00       25.00       25.00       25.00       25.00       25.00       25.00    
        25.00       25.00       25.00       25.00       25.00       25.00       25.00       25.00       25.00       25.00    
        25.00       25.00       25.00       25.00       25.00       25.00       25.00       25.00       25.00       25.00    
  18    25.00       25.00       25.00       25.00       25.00       25.00       25.00       25.00       25.00       25.00    
        25.00       25.00       25.00       25.00       25.00       25.00       25.00       25.00       25.00       25.00    
        25.00       25.00       25.00       25.00       25.00       25.00       25.00       25.00       25.00       25.00    
        25.00       25.00       25.00       25.00       25.00       25.00       25.00       25.00       25.00       25.00    
  19    25.00       25.00       25.00       25.00       25.00       25.00       25.00       25.00       25.00       25.00    
        25.00       25.00       25.00       25.00       25.00       25.00       25.00       25.00       25.00       25.00    
        25.00       25.00       25.00       25.00       25.00       25.00       25.00       25.00       25.00       25.00    
        25.00       25.00       25.00       25.00       25.00       25.00       25.00       25.00       25.00       25.00    
  20    25.00       25.00       25.00       25.00       25.00       25.00       25.00       25.00       25.00       25.00    
        25.00       25.00       25.00       25.00       25.00       25.00       25.00       25.00       25.00       25.00    
        25.00       25.00       25.00       25.00       25.00       25.00       25.00       25.00       25.00       25.00    
        25.00       25.00       25.00       25.00       25.00       25.00       25.00       25.00       25.00       25.00    
  21    25.00       25.00       25.00       25.00       25.00       25.00       25.00       25.00       25.00       25.00    
        25.00       25.00       25.00       25.00       25.00       25.00       25.00       25.00       25.00       25.00    
        25.00       25.00       25.00       25.00       25.00       25.00       25.00       25.00       25.00       25.00    
        25.00       25.00       25.00       25.00       25.00       25.00       25.00       25.00       25.00       25.00    
  22    25.00       25.00       25.00       25.00       25.00       25.00       25.00       25.00       25.00       25.00    
        25.00       25.00       25.00       25.00       25.00       25.00       25.00       25.00       25.00       25.00    
        25.00       25.00       25.00       25.00       25.00       25.00       25.00       25.00       25.00       25.00    
        25.00       25.00       25.00       25.00       25.00       25.00       25.00       25.00       25.00       25.00    
  23    25.00       25.00       25.00       25.00       25.00       25.00       25.00       25.00       25.00       25.00    
        25.00       25.00       25.00       25.00       25.00       25.00       25.00       25.00       25.00       25.00    
        25.00       25.00       25.00       25.00       25.00       25.00       25.00       25.00       25.00       25.00    
        25.00       25.00       25.00       25.00       25.00       25.00       25.00       25.00       25.00       25.00    
  24    25.00       25.00       25.00       25.00       25.00       25.00       25.00       25.00       25.00       25.00    
        25.00       25.00       25.00       25.00       25.00       25.00       25.00       25.00       25.00       25.00    
        25.00       25.00       25.00       25.00       25.00       25.00       25.00       25.00       25.00       25.00    
        25.00       25.00       25.00       25.00       25.00       25.00       25.00       25.00       25.00       25.00    
  25    25.00       25.00       25.00       25.00       25.00       25.00       25.00       25.00       25.00       25.00    
        25.00       25.00       25.00       25.00       25.00       25.00       25.00       25.00       25.00       25.00    
        25.00       25.00       25.00       25.00       25.00       25.00       25.00       25.00       25.00       25.00    
        25.00       25.00       25.00       25.00       25.00       25.00       25.00       25.00       25.00       25.00    
  26    25.00       25.00       25.00       25.00       25.00       25.00       25.00       25.00       25.00       25.00    
        25.00       25.00       25.00       25.00       25.00       25.00       25.00       25.00       25.00       25.00    
        25.00       25.00       25.00       25.00       25.00       25.00       25.00       25.00       25.00       25.00    
        25.00       25.00       25.00       25.00       25.00       25.00       25.00       25.00       25.00       25.00    
  27    25.00       25.00       25.00       25.00       25.00       25.00       25.00       25.00       25.00       25.00    
        25.00       25.00       25.00       25.00       25.00       25.00       25.00       25.00       25.00       25.00    
        25.00       25.00       25.00       25.00       25.00       25.00       25.00       25.00       25.00       25.00    
        25.00       25.00       25.00       25.00       25.00       25.00       25.00       25.00       25.00       25.00    
  28    25.00       25.00       25.00       25.00       25.00       25.00       25.00       25.00       25.00       25.00    
        25.00       25.00       25.00       25.00       25.00       25.00       25.00       25.00       25.00       25.00    
        25.00       25.00       25.00       25.00       25.00       25.00       25.00       25.00       25.00       25.00    
        25.00       25.00       25.00       25.00       25.00       25.00       25.00       25.00       25.00       25.00    
  29    25.00       25.00       25.00       25.00       25.00       25.00       25.00       25.00       25.00       25.00    
        25.00       25.00       25.00       25.00       25.00       25.00       25.00       25.00       25.00       25.00    
        25.00       25.00       25.00       25.00       25.00       25.00       25.00       25.00       25.00       25.00    
        25.00       25.00       25.00       25.00       25.00       25.00       25.00       25.00       25.00       25.00    
  30    25.00       25.00       25.00       25.00       25.00       25.00       25.00       25.00       25.00       25.00    
        25.00       25.00       25.00       25.00       25.00       25.00       25.00       25.00       25.00       25.00    
        25.00       25.00       25.00       25.00       25.00       25.00       25.00       25.00       25.00       25.00    
        25.00       25.00       25.00       25.00       25.00       25.00       25.00       25.00       25.00       25.00    
  31    25.00       25.00       25.00       25.00       25.00       25.00       25.00       25.00       25.00       25.00    
        25.00       25.00       25.00       25.00       25.00       25.00       25.00       25.00       25.00       25.00    
        25.00       25.00       25.00       25.00       25.00       25.00       25.00       25.00       25.00       25.00    
        25.00       25.00       25.00       25.00       25.00       25.00       25.00       25.00       25.00       25.00    
  32    25.00       25.00       25.00       25.00       25.00       25.00       25.00       25.00       25.00       25.00    
        25.00       25.00       25.00       25.00       25.00       25.00       25.00       25.00       25.00       25.00    
        25.00       25.00       25.00       25.00       25.00       25.00       25.00       25.00       25.00       25.00    
        25.00       25.00       25.00       25.00       25.00       25.00       25.00       25.00       25.00       25.00    
  33    25.00       25.00       25.00       25.00       25.00       25.00       25.00       25.00       25.00       25.00    
        25.00       25.00       25.00       25.00       25.00       25.00       25.00       25.00       25.00       25.00    
        25.00       25.00       25.00       25.00       25.00       25.00       25.00       25.00       25.00       25.00    
        25.00       25.00       25.00       25.00       25.00       25.00       25.00       25.00       25.00       25.00    
  34    25.00       25.00       25.00       25.00       25.00       25.00       25.00       25.00       25.00       25.00    
        25.00       25.00       25.00       25.00       25.00       25.00       25.00       25.00       25.00       25.00    
        25.00       25.00       25.00       25.00       25.00       25.00       25.00       25.00       25.00       25.00    
        25.00       25.00       25.00       25.00       25.00       25.00       25.00       25.00       25.00       25.00    
  35    25.00       25.00       25.00       25.00       25.00       25.00       25.00       25.00       25.00       25.00    
        25.00       25.00       25.00       25.00       25.00       25.00       25.00       25.00       25.00       25.00    
        25.00       25.00       25.00       25.00       25.00       25.00       25.00       25.00       25.00       25.00    
        25.00       25.00       25.00       25.00       25.00       25.00       25.00       25.00       25.00       25.00    
  36    25.00       25.00       25.00       25.00       25.00       25.00       25.00       25.00       25.00       25.00    
        25.00       25.00       25.00       25.00       25.00       25.00       25.00       25.00       25.00       25.00    
        25.00       25.00       25.00       25.00       25.00       25.00       25.00       25.00       25.00       25.00    
        25.00       25.00       25.00       25.00       25.00       25.00       25.00       25.00       25.00       25.00    
  37    25.00       25.00       25.00       25.00       25.00       25.00       25.00       25.00       25.00       25.00    
        25.00       25.00       25.00       25.00       25.00       25.00       25.00       25.00       25.00       25.00    
        25.00       25.00       25.00       25.00       25.00       25.00       25.00       25.00       25.00       25.00    
        25.00       25.00       25.00       25.00       25.00       25.00       25.00       25.00       25.00       25.00    
  38    25.00       25.00       25.00       25.00       25.00       25.00       25.00       25.00       25.00       25.00    
        25.00       25.00       25.00       25.00       25.00       25.00       25.00       25.00       25.00       25.00    
        25.00       25.00       25.00       25.00       25.00       25.00       25.00       25.00       25.00       25.00    
        25.00       25.00       25.00       25.00       25.00       25.00       25.00       25.00       25.00       25.00    
  39    25.00       25.00       25.00       25.00       25.00       25.00       25.00       25.00       25.00       25.00    
        25.00       25.00       25.00       25.00       25.00       25.00       25.00       25.00       25.00       25.00    
        25.00       25.00       25.00       25.00       25.00       25.00       25.00       25.00       25.00       25.00    
        25.00       25.00       25.00       25.00       25.00       25.00       25.00       25.00       25.00       25.00    
  40    25.00       25.00       25.00       25.00       25.00       25.00       25.00       25.00       25.00       25.00    
        25.00       25.00       25.00       25.00       25.00       25.00       25.00       25.00       25.00       25.00    
        25.00       25.00       25.00       25.00       25.00       25.00       25.00       25.00       25.00       25.00    
        25.00       25.00       25.00       25.00       25.00       25.00       25.00       25.00       25.00       25.00    
1
              HEAD IN LAYER  14 AT END OF TIME STEP  10 IN STRESS PERIOD    1
  ---------------------------------------------------------------------------

            1           2           3           4           5           6           7           8           9          10
           11          12          13          14          15          16          17          18          19          20
           21          22          23          24          25          26          27          28          29          30
           31          32          33          34          35          36          37          38          39          40
 ........................................................................................................................
   1    38.56       36.87       33.37       30.46       28.39       27.04       26.20       25.69       25.39       25.22    
        25.12       25.06       25.03       25.02       25.01       25.01       25.00       25.00       25.00       25.00    
        25.00       25.00       25.00       25.00       25.00       25.00       25.00       25.00       25.00       25.00    
        25.00       25.00       25.00       25.00       25.00       25.00       25.00       25.00       25.00       25.00    
   2    36.87       35.38       32.36       29.83       28.05       26.86       26.10       25.64       25.36       25.20    
        25.11       25.06       25.03       25.02       25.01       25.01       25.00       25.00       25.00       25.00    
        25.00       25.00       25.00       25.00       25.00       25.00       25.00       25.00       25.00       25.00    
        25.00       25.00       25.00       25.00       25.00       25.00       25.00       25.00       25.00       25.00    
   3    33.37       32.36       30.52       28.80       27.47       26.54       25.93       25.55       25.32       25.18    
        25.10       25.05       25.03       25.02       25.01       25.00       25.00       25.00       25.00       25.00    
        25.00       25.00       25.00       25.00       25.00       25.00       25.00       25.00       25.00       25.00    
        25.00       25.00       25.00       25.00       25.00       25.00       25.00       25.00       25.00       25.00    
   4    30.46       29.83       28.80       27.73       26.84       26.18       25.73       25.44       25.26       25.15    
        25.08       25.05       25.03       25.01       25.01       25.00       25.00       25.00       25.00       25.00    
        25.00       25.00       25.00       25.00       25.00       25.00       25.00       25.00       25.00       25.00    
        25.00       25.00       25.00       25.00       25.00       25.00       25.00       25.00       25.00       25.00    
   5    28.39       28.05       27.47       26.84       26.29       25.85       25.54       25.33       25.20       25.12    
        25.07       25.04       25.02       25.01       25.01       25.00       25.00       25.00       25.00       25.00    
        25.00       25.00       25.00       25.00       25.00       25.00       25.00       25.00       25.00       25.00    
        25.00       25.00       25.00       25.00       25.00       25.00       25.00       25.00       25.00       25.00    
   6    27.04       26.86       26.54       26.18       25.85       25.58       25.38       25.24       25.14       25.09    
        25.05       25.03       25.02       25.01       25.01       25.00       25.00       25.00       25.00       25.00    
        25.00       25.00       25.00       25.00       25.00       25.00       25.00       25.00       25.00       25.00    
        25.00       25.00       25.00       25.00       25.00       25.00       25.00       25.00       25.00       25.00    
   7    26.20       26.10       25.93       25.73       25.54       25.38       25.25       25.16       25.10       25.06    
        25.04       25.02       25.01       25.01       25.00       25.00       25.00       25.00       25.00       25.00    
        25.00       25.00       25.00       25.00       25.00       25.00       25.00       25.00       25.00       25.00    
        25.00       25.00       25.00       25.00       25.00       25.00       25.00       25.00       25.00       25.00    
   8    25.69       25.64       25.55       25.44       25.33       25.24       25.16       25.11       25.07       25.04    
        25.03       25.02       25.01       25.01       25.00       25.00       25.00       25.00       25.00       25.00    
        25.00       25.00       25.00       25.00       25.00       25.00       25.00       25.00       25.00       25.00    
        25.00       25.00       25.00       25.00       25.00       25.00       25.00       25.00       25.00       25.00    
   9    25.39       25.36       25.32       25.26       25.20       25.14       25.10       25.07       25.04       25.03    
        25.02       25.01       25.01       25.00       25.00       25.00       25.00       25.00       25.00       25.00    
        25.00       25.00       25.00       25.00       25.00       25.00       25.00       25.00       25.00       25.00    
        25.00       25.00       25.00       25.00       25.00       25.00       25.00       25.00       25.00       25.00    
  10    25.22       25.20       25.18       25.15       25.12       25.09       25.06       25.04       25.03       25.02    
        25.01       25.01       25.00       25.00       25.00       25.00       25.00       25.00       25.00       25.00    
        25.00       25.00       25.00       25.00       25.00       25.00       25.00       25.00       25.00       25.00    
        25.00       25.00       25.00       25.00       25.00       25.00       25.00       25.00       25.00       25.00    
  11    25.12       25.11       25.10       25.08       25.07       25.05       25.04       25.03       25.02       25.01    
        25.01       25.01       25.00       25.00       25.00       25.00       25.00       25.00       25.00       25.00    
        25.00       25.00       25.00       25.00       25.00       25.00       25.00       25.00       25.00       25.00    
        25.00       25.00       25.00       25.00       25.00       25.00       25.00       25.00       25.00       25.00    
  12    25.06       25.06       25.05       25.05       25.04       25.03       25.02       25.02       25.01       25.01    
        25.01       25.00       25.00       25.00       25.00       25.00       25.00       25.00       25.00       25.00    
        25.00       25.00       25.00       25.00       25.00       25.00       25.00       25.00       25.00       25.00    
        25.00       25.00       25.00       25.00       25.00       25.00       25.00       25.00       25.00       25.00    
  13    25.03       25.03       25.03       25.03       25.02       25.02       25.01       25.01       25.01       25.00    
        25.00       25.00       25.00       25.00       25.00       25.00       25.00       25.00       25.00       25.00    
        25.00       25.00       25.00       25.00       25.00       25.00       25.00       25.00       25.00       25.00    
        25.00       25.00       25.00       25.00       25.00       25.00       25.00       25.00       25.00       25.00    
  14    25.02       25.02       25.02       25.01       25.01       25.01       25.01       25.01       25.00       25.00    
        25.00       25.00       25.00       25.00       25.00       25.00       25.00       25.00       25.00       25.00    
        25.00       25.00       25.00       25.00       25.00       25.00       25.00       25.00       25.00       25.00    
        25.00       25.00       25.00       25.00       25.00       25.00       25.00       25.00       25.00       25.00    
  15    25.01       25.01       25.01       25.01       25.01       25.01       25.00       25.00       25.00       25.00    
        25.00       25.00       25.00       25.00       25.00       25.00       25.00       25.00       25.00       25.00    
        25.00       25.00       25.00       25.00       25.00       25.00       25.00       25.00       25.00       25.00    
        25.00       25.00       25.00       25.00       25.00       25.00       25.00       25.00       25.00       25.00    
  16    25.01       25.01       25.00       25.00       25.00       25.00       25.00       25.00       25.00       25.00    
        25.00       25.00       25.00       25.00       25.00       25.00       25.00       25.00       25.00       25.00    
        25.00       25.00       25.00       25.00       25.00       25.00       25.00       25.00       25.00       25.00    
        25.00       25.00       25.00       25.00       25.00       25.00       25.00       25.00       25.00       25.00    
  17    25.00       25.00       25.00       25.00       25.00       25.00       25.00       25.00       25.00       25.00    
        25.00       25.00       25.00       25.00       25.00       25.00       25.00       25.00       25.00       25.00    
        25.00       25.00       25.00       25.00       25.00       25.00       25.00       25.00       25.00       25.00    
        25.00       25.00       25.00       25.00       25.00       25.00       25.00       25.00       25.00       25.00    
  18    25.00       25.00       25.00       25.00       25.00       25.00       25.00       25.00       25.00       25.00    
        25.00       25.00       25.00       25.00       25.00       25.00       25.00       25.00       25.00       25.00    
        25.00       25.00       25.00       25.00       25.00       25.00       25.00       25.00       25.00       25.00    
        25.00       25.00       25.00       25.00       25.00       25.00       25.00       25.00       25.00       25.00    
  19    25.00       25.00       25.00       25.00       25.00       25.00       25.00       25.00       25.00       25.00    
        25.00       25.00       25.00       25.00       25.00       25.00       25.00       25.00       25.00       25.00    
        25.00       25.00       25.00       25.00       25.00       25.00       25.00       25.00       25.00       25.00    
        25.00       25.00       25.00       25.00       25.00       25.00       25.00       25.00       25.00       25.00    
  20    25.00       25.00       25.00       25.00       25.00       25.00       25.00       25.00       25.00       25.00    
        25.00       25.00       25.00       25.00       25.00       25.00       25.00       25.00       25.00       25.00    
        25.00       25.00       25.00       25.00       25.00       25.00       25.00       25.00       25.00       25.00    
        25.00       25.00       25.00       25.00       25.00       25.00       25.00       25.00       25.00       25.00    
  21    25.00       25.00       25.00       25.00       25.00       25.00       25.00       25.00       25.00       25.00    
        25.00       25.00       25.00       25.00       25.00       25.00       25.00       25.00       25.00       25.00    
        25.00       25.00       25.00       25.00       25.00       25.00       25.00       25.00       25.00       25.00    
        25.00       25.00       25.00       25.00       25.00       25.00       25.00       25.00       25.00       25.00    
  22    25.00       25.00       25.00       25.00       25.00       25.00       25.00       25.00       25.00       25.00    
        25.00       25.00       25.00       25.00       25.00       25.00       25.00       25.00       25.00       25.00    
        25.00       25.00       25.00       25.00       25.00       25.00       25.00       25.00       25.00       25.00    
        25.00       25.00       25.00       25.00       25.00       25.00       25.00       25.00       25.00       25.00    
  23    25.00       25.00       25.00       25.00       25.00       25.00       25.00       25.00       25.00       25.00    
        25.00       25.00       25.00       25.00       25.00       25.00       25.00       25.00       25.00       25.00    
        25.00       25.00       25.00       25.00       25.00       25.00       25.00       25.00       25.00       25.00    
        25.00       25.00       25.00       25.00       25.00       25.00       25.00       25.00       25.00       25.00    
  24    25.00       25.00       25.00       25.00       25.00       25.00       25.00       25.00       25.00       25.00    
        25.00       25.00       25.00       25.00       25.00       25.00       25.00       25.00       25.00       25.00    
        25.00       25.00       25.00       25.00       25.00       25.00       25.00       25.00       25.00       25.00    
        25.00       25.00       25.00       25.00       25.00       25.00       25.00       25.00       25.00       25.00    
  25    25.00       25.00       25.00       25.00       25.00       25.00       25.00       25.00       25.00       25.00    
        25.00       25.00       25.00       25.00       25.00       25.00       25.00       25.00       25.00       25.00    
        25.00       25.00       25.00       25.00       25.00       25.00       25.00       25.00       25.00       25.00    
        25.00       25.00       25.00       25.00       25.00       25.00       25.00       25.00       25.00       25.00    
  26    25.00       25.00       25.00       25.00       25.00       25.00       25.00       25.00       25.00       25.00    
        25.00       25.00       25.00       25.00       25.00       25.00       25.00       25.00       25.00       25.00    
        25.00       25.00       25.00       25.00       25.00       25.00       25.00       25.00       25.00       25.00    
        25.00       25.00       25.00       25.00       25.00       25.00       25.00       25.00       25.00       25.00    
  27    25.00       25.00       25.00       25.00       25.00       25.00       25.00       25.00       25.00       25.00    
        25.00       25.00       25.00       25.00       25.00       25.00       25.00       25.00       25.00       25.00    
        25.00       25.00       25.00       25.00       25.00       25.00       25.00       25.00       25.00       25.00    
        25.00       25.00       25.00       25.00       25.00       25.00       25.00       25.00       25.00       25.00    
  28    25.00       25.00       25.00       25.00       25.00       25.00       25.00       25.00       25.00       25.00    
        25.00       25.00       25.00       25.00       25.00       25.00       25.00       25.00       25.00       25.00    
        25.00       25.00       25.00       25.00       25.00       25.00       25.00       25.00       25.00       25.00    
        25.00       25.00       25.00       25.00       25.00       25.00       25.00       25.00       25.00       25.00    
  29    25.00       25.00       25.00       25.00       25.00       25.00       25.00       25.00       25.00       25.00    
        25.00       25.00       25.00       25.00       25.00       25.00       25.00       25.00       25.00       25.00    
        25.00       25.00       25.00       25.00       25.00       25.00       25.00       25.00       25.00       25.00    
        25.00       25.00       25.00       25.00       25.00       25.00       25.00       25.00       25.00       25.00    
  30    25.00       25.00       25.00       25.00       25.00       25.00       25.00       25.00       25.00       25.00    
        25.00       25.00       25.00       25.00       25.00       25.00       25.00       25.00       25.00       25.00    
        25.00       25.00       25.00       25.00       25.00       25.00       25.00       25.00       25.00       25.00    
        25.00       25.00       25.00       25.00       25.00       25.00       25.00       25.00       25.00       25.00    
  31    25.00       25.00       25.00       25.00       25.00       25.00       25.00       25.00       25.00       25.00    
        25.00       25.00       25.00       25.00       25.00       25.00       25.00       25.00       25.00       25.00    
        25.00       25.00       25.00       25.00       25.00       25.00       25.00       25.00       25.00       25.00    
        25.00       25.00       25.00       25.00       25.00       25.00       25.00       25.00       25.00       25.00    
  32    25.00       25.00       25.00       25.00       25.00       25.00       25.00       25.00       25.00       25.00    
        25.00       25.00       25.00       25.00       25.00       25.00       25.00       25.00       25.00       25.00    
        25.00       25.00       25.00       25.00       25.00       25.00       25.00       25.00       25.00       25.00    
        25.00       25.00       25.00       25.00       25.00       25.00       25.00       25.00       25.00       25.00    
  33    25.00       25.00       25.00       25.00       25.00       25.00       25.00       25.00       25.00       25.00    
        25.00       25.00       25.00       25.00       25.00       25.00       25.00       25.00       25.00       25.00    
        25.00       25.00       25.00       25.00       25.00       25.00       25.00       25.00       25.00       25.00    
        25.00       25.00       25.00       25.00       25.00       25.00       25.00       25.00       25.00       25.00    
  34    25.00       25.00       25.00       25.00       25.00       25.00       25.00       25.00       25.00       25.00    
        25.00       25.00       25.00       25.00       25.00       25.00       25.00       25.00       25.00       25.00    
        25.00       25.00       25.00       25.00       25.00       25.00       25.00       25.00       25.00       25.00    
        25.00       25.00       25.00       25.00       25.00       25.00       25.00       25.00       25.00       25.00    
  35    25.00       25.00       25.00       25.00       25.00       25.00       25.00       25.00       25.00       25.00    
        25.00       25.00       25.00       25.00       25.00       25.00       25.00       25.00       25.00       25.00    
        25.00       25.00       25.00       25.00       25.00       25.00       25.00       25.00       25.00       25.00    
        25.00       25.00       25.00       25.00       25.00       25.00       25.00       25.00       25.00       25.00    
  36    25.00       25.00       25.00       25.00       25.00       25.00       25.00       25.00       25.00       25.00    
        25.00       25.00       25.00       25.00       25.00       25.00       25.00       25.00       25.00       25.00    
        25.00       25.00       25.00       25.00       25.00       25.00       25.00       25.00       25.00       25.00    
        25.00       25.00       25.00       25.00       25.00       25.00       25.00       25.00       25.00       25.00    
  37    25.00       25.00       25.00       25.00       25.00       25.00       25.00       25.00       25.00       25.00    
        25.00       25.00       25.00       25.00       25.00       25.00       25.00       25.00       25.00       25.00    
        25.00       25.00       25.00       25.00       25.00       25.00       25.00       25.00       25.00       25.00    
        25.00       25.00       25.00       25.00       25.00       25.00       25.00       25.00       25.00       25.00    
  38    25.00       25.00       25.00       25.00       25.00       25.00       25.00       25.00       25.00       25.00    
        25.00       25.00       25.00       25.00       25.00       25.00       25.00       25.00       25.00       25.00    
        25.00       25.00       25.00       25.00       25.00       25.00       25.00       25.00       25.00       25.00    
        25.00       25.00       25.00       25.00       25.00       25.00       25.00       25.00       25.00       25.00    
  39    25.00       25.00       25.00       25.00       25.00       25.00       25.00       25.00       25.00       25.00    
        25.00       25.00       25.00       25.00       25.00       25.00       25.00       25.00       25.00       25.00    
        25.00       25.00       25.00       25.00       25.00       25.00       25.00       25.00       25.00       25.00    
        25.00       25.00       25.00       25.00       25.00       25.00       25.00       25.00       25.00       25.00    
  40    25.00       25.00       25.00       25.00       25.00       25.00       25.00       25.00       25.00       25.00    
        25.00       25.00       25.00       25.00       25.00       25.00       25.00       25.00       25.00       25.00    
        25.00       25.00       25.00       25.00       25.00       25.00       25.00       25.00       25.00       25.00    
        25.00       25.00       25.00       25.00       25.00       25.00       25.00       25.00       25.00       25.00    
1
  VOLUMETRIC BUDGET FOR ENTIRE MODEL AT END OF TIME STEP   10, STRESS PERIOD   1
  ------------------------------------------------------------------------------

     CUMULATIVE VOLUMES      L**3       RATES FOR THIS TIME STEP      L**3/T
     ------------------                 ------------------------

           IN:                                      IN:
           ---                                      ---
             STORAGE =           0.3008               STORAGE =           0.0000
       CONSTANT HEAD =           0.1204         CONSTANT HEAD =           0.0000
            RECHARGE =      593750.0000              RECHARGE =        3125.0000

            TOTAL IN =      593750.4375              TOTAL IN =        3125.0000

          OUT:                                     OUT:
          ----                                     ----
             STORAGE =      593745.3125               STORAGE =        3124.8201
       CONSTANT HEAD =           8.7418         CONSTANT HEAD =           0.2005
            RECHARGE =           0.0000              RECHARGE =           0.0000

           TOTAL OUT =      593754.0625             TOTAL OUT =        3125.0205

            IN - OUT =          -3.6250              IN - OUT =      -2.0508E-02

 PERCENT DISCREPANCY =          -0.00     PERCENT DISCREPANCY =          -0.00






         TIME SUMMARY AT END OF TIME STEP   10 IN STRESS PERIOD    1
                    SECONDS     MINUTES      HOURS       DAYS        YEARS
                    -----------------------------------------------------------
   TIME STEP LENGTH 1.64160E+06  27360.      456.00      19.000     5.20192E-02
 STRESS PERIOD TIME 1.64160E+07 2.73600E+05  4560.0      190.00     0.52019    
         TOTAL TIME 1.64160E+07 2.73600E+05  4560.0      190.00     0.52019    
1
1
                            STRESS PERIOD NO.    2, LENGTH =   518.0000    
                            -----------------------------------------------

                              NUMBER OF TIME STEPS =     2

                               MULTIPLIER FOR DELT =     1.000

                            INITIAL TIME STEP SIZE =   259.0000    

 REUSING RECH FROM LAST STRESS PERIOD
 
 SOLVING FOR HEAD 

 CELL CONVERSIONS FOR ITER.=  2  LAYER=  5  STEP=  1  PERIOD=   2   (ROW,COL)
    WET(  1,  1)   

 CELL CONVERSIONS FOR ITER.=  2  LAYER=  6  STEP=  1  PERIOD=   2   (ROW,COL)
    WET(  1,  2)   WET(  2,  1)   WET(  2,  2)   

 CELL CONVERSIONS FOR ITER.=  2  LAYER=  7  STEP=  1  PERIOD=   2   (ROW,COL)
    WET(  1,  3)   WET(  2,  3)   WET(  3,  1)   WET(  3,  2)   

 CELL CONVERSIONS FOR ITER.=  2  LAYER=  8  STEP=  1  PERIOD=   2   (ROW,COL)
    WET(  1,  4)   WET(  1,  5)   WET(  2,  4)   WET(  2,  5)   WET(  3,  4)   
    WET(  3,  5)   WET(  4,  1)   WET(  4,  2)   WET(  4,  3)   WET(  4,  4)   
    WET(  5,  1)   WET(  5,  2)   WET(  5,  3)   


     7 CALLS TO PCG ROUTINE FOR TIME STEP   1 IN STRESS PERIOD    2
    82 TOTAL ITERATIONS

 MAXIMUM HEAD CHANGE FOR EACH ITERATION (1 INDICATES THE FIRST INNER ITERATION):

    HEAD CHANGE    HEAD CHANGE    HEAD CHANGE    HEAD CHANGE    HEAD CHANGE 
   LAYER,ROW,COL  LAYER,ROW,COL  LAYER,ROW,COL  LAYER,ROW,COL  LAYER,ROW,COL
 ---------------------------------------------------------------------------
  1   6.168      0  0.9705      0  0.3269      0  0.9778E-01  0  0.5056E-01
   (  7,  1,  2)  ( 12,  6,  1)  ( 10,  8,  1)  (  6,  1,  1)  (  6,  1,  1)
  0  0.7082E-01  0  0.4315E-01  0  0.2148E-01  0  0.1288E-01  0  0.5358E-02
   (  7,  2,  2)  (  7,  2,  2)  ( 14, 21,  1)  ( 14, 29, 29)  ( 14, 19, 25)
  0  0.5746E-02  0  0.2218E-02  0 -0.1576E-02  0 -0.1239E-02  0 -0.9342E-03
   ( 12,  3,  3)  ( 10, 28,  2)  ( 12,  3,  3)  ( 14,  3, 30)  ( 14,  1, 21)
  0 -0.8546E-03  0 -0.4810E-03  0 -0.2417E-03  0 -0.1415E-03  0 -0.7737E-04
   ( 14, 28,  3)  ( 14, 21, 11)  ( 14, 11, 25)  ( 14,  2, 26)  ( 14, 26,  2)
  1  -4.144      0   2.214      0  0.7827      0  0.2705      0  0.2984E-01
   (  7,  1,  2)  ( 14,  2,  2)  ( 14,  1,  1)  ( 14,  3,  3)  ( 13,  4,  2)
  0  0.6106E-01  0  0.8939E-02  0  0.1836E-01  0  0.8324E-02  0  0.4497E-02
   ( 14,  5,  1)  ( 13,  4,  4)  (  5,  1,  1)  (  5,  1,  1)  (  5,  1,  1)
  0  0.3029E-02  0 -0.1271E-02  0  0.1185E-02  0 -0.7307E-03  0  0.1004E-02
   (  5,  1,  1)  ( 14, 28, 28)  ( 14,  6,  1)  ( 14, 29,  4)  (  5,  1,  1)
  0  0.5364E-03  0  0.3442E-03  0  0.2309E-03  0  0.9389E-04  1 -0.7060    
   (  5,  1,  1)  ( 14, 29,  3)  (  5,  1,  1)  ( 14, 17, 26)  (  6,  1,  1)
  0 -0.2876      0 -0.2416      0  0.9089E-01  0  0.8017E-02  0  0.1999E-01
   (  6,  1,  1)  (  7,  2,  2)  ( 13,  2,  2)  ( 14,  3,  2)  ( 10,  3,  3)
  0  0.6107E-02  0  0.9351E-02  0  0.2073E-02  0 -0.2610E-02  0 -0.1563E-02
   (  9,  3,  3)  ( 14,  1,  1)  ( 14,  1,  1)  (  6,  1,  1)  (  6,  1,  1)
  0 -0.6112E-03  0 -0.8136E-03  0 -0.1638E-03  0 -0.2724E-03  0 -0.1500E-03
   (  6,  1,  1)  ( 14,  3,  3)  (  8,  1,  3)  (  8,  4,  1)  (  8,  4,  1)
  0 -0.8601E-04  1  0.7902E-01  0  0.5060E-01  0  0.9795E-02  0  0.5994E-02
   ( 14,  1,  1)  (  6,  1,  1)  (  6,  1,  2)  (  7,  2,  2)  (  7,  2,  2)
  0 -0.4611E-02  0 -0.4969E-02  0 -0.1491E-02  0 -0.1601E-02  0 -0.4125E-03
   ( 12,  2,  2)  ( 11,  2,  2)  ( 14,  1,  4)  ( 14,  1,  5)  ( 14,  1,  6)
  0  0.4320E-03  0  0.2359E-03  0  0.1514E-03  0  0.1654E-03  0 -0.5024E-04
   ( 12,  4,  1)  ( 11,  4,  1)  (  9,  3,  3)  (  8,  3,  3)  ( 14,  4, 29)
  1 -0.7351E-02  0 -0.1903E-02  0 -0.1089E-02  0  0.4878E-03  0  0.4980E-03
   (  6,  1,  1)  (  6,  1,  1)  (  6,  1,  1)  ( 14,  1,  2)  ( 14,  1,  3)
  0  0.1557E-03  0  0.1537E-03  0  0.5676E-04  1  0.1926E-03  0  0.1136E-03
   ( 13,  2,  2)  ( 12,  2,  2)  ( 14,  4,  4)  (  7,  1,  1)  (  6,  1,  1)
  0  0.5075E-04  1  0.2130E-04
   (  6,  1,  1)  ( 14, 28, 20)

 MAXIMUM RESIDUAL FOR EACH ITERATION (1 INDICATES THE FIRST INNER ITERATION):

    RESIDUAL       RESIDUAL       RESIDUAL       RESIDUAL       RESIDUAL    
   LAYER,ROW,COL  LAYER,ROW,COL  LAYER,ROW,COL  LAYER,ROW,COL  LAYER,ROW,COL
 ---------------------------------------------------------------------------
  1  -67.11      0  -32.24      0  -11.23      0  -7.265      0  -7.353    
   (  7,  2,  2)  (  9,  2,  4)  (  8,  1,  3)  (  7,  2,  2)  ( 11,  2,  2)
  0  -2.841      0   2.314      0   1.006      0 -0.8804      0  0.4788    
   (  9,  2,  4)  ( 14,  2,  2)  ( 14,  2,  4)  ( 13,  3,  3)  ( 14,  2,  4)
  0  0.3679      0  0.2978      0  0.1836      0  0.1658      0  0.1062    
   ( 14,  1,  2)  ( 14,  1,  2)  ( 14,  2,  2)  ( 14,  1,  4)  ( 14,  1,  4)
  0 -0.4975E-01  0  0.3018E-01  0 -0.1847E-01  0 -0.1136E-01  0 -0.9116E-02
   ( 12,  3,  3)  ( 12,  1,  5)  ( 13,  1,  4)  (  7,  2,  2)  (  7,  2,  2)
  1  -137.3      0   41.16      0  -19.97      0  -13.86      0  -12.31    
   ( 14,  2,  2)  (  7,  2,  2)  (  8,  2,  2)  (  7,  1,  1)  (  7,  1,  1)
  0  -8.937      0  -7.857      0  -5.557      0  -4.342      0  -3.227    
   (  7,  1,  1)  (  7,  1,  1)  (  7,  1,  1)  (  7,  1,  1)  (  7,  1,  1)
  0  -2.236      0  -1.755      0  -1.186      0 -0.9289      0 -0.5418    
   (  7,  1,  1)  (  7,  1,  1)  (  7,  1,  1)  (  7,  1,  1)  (  7,  1,  1)
  0 -0.3298      0 -0.1971      0 -0.7593E-01  0 -0.4741E-01  1   104.5    
   (  7,  1,  1)  (  7,  1,  1)  (  7,  1,  1)  (  7,  1,  1)  (  7,  2,  2)
  0   77.32      0   18.07      0   6.403      0   5.397      0  -3.442    
   (  7,  2,  2)  (  7,  2,  2)  (  8,  1,  3)  (  8,  1,  3)  (  8,  2,  2)
  0  -2.962      0  -1.816      0  -1.329      0 -0.7687      0 -0.4885    
   (  8,  2,  2)  (  8,  2,  2)  (  8,  2,  2)  (  8,  2,  2)  (  8,  2,  2)
  0 -0.3685      0 -0.2333      0 -0.1886      0 -0.1258      0 -0.8290E-01
   (  8,  2,  2)  (  8,  2,  2)  (  8,  2,  2)  (  8,  2,  2)  (  8,  2,  2)
  0 -0.6063E-01  1  -9.595      0  -4.863      0  -3.002      0  -1.496    
   (  8,  2,  2)  (  7,  2,  2)  (  7,  2,  2)  (  7,  2,  2)  (  7,  2,  2)
  0  -1.080      0 -0.7476      0 -0.5320      0 -0.2727      0 -0.1649    
   (  7,  2,  2)  (  7,  2,  2)  (  7,  2,  2)  (  7,  2,  2)  (  7,  2,  2)
  0  0.1242      0  0.9467E-01  0  0.6849E-01  0  0.4352E-01  0  0.3581E-01
   (  8,  2,  2)  (  8,  2,  2)  (  8,  2,  2)  (  8,  2,  2)  (  8,  2,  2)
  1  0.8512      0  0.5424      0  0.3206      0  0.1950      0  0.9283E-01
   (  6,  1,  1)  (  6,  1,  1)  (  6,  1,  1)  (  6,  1,  1)  (  7,  2,  2)
  0  0.7110E-01  0  0.4862E-01  0  0.3720E-01  1  0.4096E-01  0  0.3281E-01
   (  7,  2,  2)  (  7,  2,  2)  (  7,  2,  2)  (  6,  2,  2)  (  6,  2,  2)
  0  0.2469E-01  1  0.2198E-01
   (  6,  2,  2)  (  6,  2,  2)



 NO OUTPUT CONTROL FOR STRESS PERIOD    2   TIME STEP    1
 
 SOLVING FOR HEAD 

 CELL CONVERSIONS FOR ITER.=  2  LAYER=  5  STEP=  2  PERIOD=   2   (ROW,COL)
    WET(  1,  2)   WET(  2,  1)   WET(  2,  2)   

 CELL CONVERSIONS FOR ITER.=  2  LAYER=  7  STEP=  2  PERIOD=   2   (ROW,COL)
    WET(  1,  4)   WET(  2,  4)   WET(  3,  3)   WET(  4,  1)   WET(  4,  2)   

 CELL CONVERSIONS FOR ITER.=  2  LAYER=  8  STEP=  2  PERIOD=   2   (ROW,COL)
    WET(  1,  6)   WET(  1,  7)   WET(  2,  6)   WET(  3,  6)   WET(  4,  5)   
    WET(  4,  6)   WET(  5,  4)   WET(  5,  5)   WET(  6,  1)   WET(  6,  2)   
    WET(  6,  3)   WET(  6,  4)   WET(  7,  1)   

 CELL CONVERSIONS FOR ITER.=  2  LAYER=  9  STEP=  2  PERIOD=   2   (ROW,COL)
    WET(  1, 18)   WET(  2, 18)   WET(  3, 18)   WET(  4, 18)   WET(  5, 17)   
    WET(  5, 18)   WET(  6, 17)   WET(  7, 17)   WET(  8, 16)   WET(  8, 17)   
    WET(  9, 16)   WET( 10, 15)   WET( 10, 16)   WET( 11, 14)   WET( 11, 15)   
    WET( 12, 13)   WET( 12, 14)   WET( 13, 12)   WET( 13, 13)   WET( 14, 11)   
    WET( 14, 12)   WET( 15, 10)   WET( 15, 11)   WET( 16,  8)   WET( 16,  9)   
    WET( 16, 10)   WET( 17,  5)   WET( 17,  6)   WET( 17,  7)   WET( 17,  8)   
    WET( 18,  1)   WET( 18,  2)   WET( 18,  3)   WET( 18,  4)   WET( 18,  5)   
     6 CALLS TO PCG ROUTINE FOR TIME STEP   2 IN STRESS PERIOD    2
    74 TOTAL ITERATIONS

 MAXIMUM HEAD CHANGE FOR EACH ITERATION (1 INDICATES THE FIRST INNER ITERATION):

    HEAD CHANGE    HEAD CHANGE    HEAD CHANGE    HEAD CHANGE    HEAD CHANGE 
   LAYER,ROW,COL  LAYER,ROW,COL  LAYER,ROW,COL  LAYER,ROW,COL  LAYER,ROW,COL
 ---------------------------------------------------------------------------
  1   3.193      0  0.3318      0 -0.1087      0 -0.7704E-01  0  0.4306E-01
   (  6,  1,  1)  ( 14,  9,  1)  ( 14,  1, 25)  ( 14,  1,  5)  ( 14, 33,  3)
  0 -0.3172E-01  0 -0.1694E-01  0  0.1445E-01  0  0.9053E-02  0  0.3605E-02
   ( 14,  8,  1)  ( 14,  9,  1)  ( 12,  2,  2)  ( 12,  2,  2)  ( 10, 21,  1)
  0  0.2334E-02  0 -0.2060E-02  0 -0.1023E-02  0  0.8559E-03  0 -0.7717E-03
   ( 12,  2, 32)  ( 14,  2,  2)  ( 14, 13, 29)  (  8,  4,  4)  ( 14, 30, 24)
  0 -0.5863E-03  0 -0.2858E-03  0 -0.1406E-03  0  0.1039E-03  0  0.5996E-04
   ( 14, 21, 21)  ( 14, 29,  2)  ( 14,  5, 26)  ( 12,  3,  3)  ( 11,  3,  3)
  1  -2.256      0   1.458      0  0.3973      0  0.1102      0  0.8236E-01
   ( 14,  2,  2)  ( 14,  2,  2)  ( 14,  1,  1)  ( 14,  1,  1)  ( 13,  3,  2)
  0  0.5808E-01  0  0.1540E-01  0  0.1166E-01  0  0.3880E-02  0 -0.3022E-02
   ( 12,  3,  2)  ( 14,  5,  1)  ( 14,  1,  6)  ( 14, 24, 15)  ( 12,  4,  1)
  0 -0.2053E-02  0  0.1568E-02  0 -0.1621E-02  0 -0.6857E-03  0  0.3878E-03
   ( 13,  4,  1)  ( 14,  3, 31)  (  7,  3,  3)  ( 14, 22,  1)  (  9,  3,  4)
  0  0.4044E-03  0  0.2466E-03  0  0.3164E-03  0  0.2489E-03  0  0.7471E-04
   ( 10,  3,  3)  (  6,  1,  1)  (  6,  1,  1)  (  6,  1,  1)  ( 14,  2,  2)
  1 -0.1988      0 -0.1624      0  0.5193E-01  0  0.3046E-01  0  0.7587E-02
   (  5,  1,  1)  ( 14,  2,  2)  (  5,  2,  2)  ( 14,  4,  1)  ( 14,  3,  1)
  0  0.1446E-01  0  0.3419E-02  0 -0.3499E-02  0 -0.1537E-02  0 -0.1183E-02
   ( 14,  3,  3)  ( 13,  3,  3)  (  9,  3,  3)  (  9,  3,  3)  ( 14,  1,  1)
  0 -0.7943E-03  0 -0.3056E-03  0 -0.4806E-03  0 -0.1503E-03  0 -0.1031E-03
   ( 14,  1,  5)  ( 14,  4,  4)  ( 14,  4,  4)  ( 14,  4,  4)  ( 14,  2,  2)
  0 -0.9469E-04  1  0.2231E-01  0  0.1151E-01  0  0.3876E-02  0  0.3086E-02
   (  5,  1,  1)  (  5,  1,  1)  (  5,  1,  1)  (  7,  2,  2)  (  7,  2,  2)
  0 -0.1097E-02  0 -0.1477E-02  0 -0.4046E-03  0 -0.5773E-03  0 -0.2010E-03
   ( 14,  2,  3)  ( 14,  2,  3)  ( 11,  1,  4)  ( 11,  1,  4)  ( 14, 30,  3)
  0  0.1870E-03  0  0.8152E-04  1 -0.1929E-02  0 -0.3736E-03  0 -0.6846E-03
   ( 14,  1,  4)  ( 14,  1,  4)  (  5,  1,  1)  (  5,  1,  1)  (  5,  1,  1)
  0  0.2090E-03  0  0.2699E-03  0  0.8814E-04  1  0.2693E-04
   (  5,  2,  2)  ( 14,  2,  2)  ( 14,  2,  2)  ( 14,  1,  1)

 MAXIMUM RESIDUAL FOR EACH ITERATION (1 INDICATES THE FIRST INNER ITERATION):

    RESIDUAL       RESIDUAL       RESIDUAL       RESIDUAL       RESIDUAL    
   LAYER,ROW,COL  LAYER,ROW,COL  LAYER,ROW,COL  LAYER,ROW,COL  LAYER,ROW,COL
 ---------------------------------------------------------------------------
  1  -17.37      0  -9.949      0  -5.657      0   2.685      0   1.893    
   (  9,  4,  5)  (  9,  2,  6)  (  9,  2,  6)  ( 14,  1,  9)  ( 14,  2, 10)
  0   1.132      0  -1.284      0 -0.5360      0  0.3673      0  0.3963    
   ( 14,  2, 11)  ( 10,  2,  2)  (  9,  2,  2)  ( 14,  1,  5)  ( 14,  2,  2)
  0  0.2364      0  0.1617      0 -0.1407      0  0.6643E-01  0 -0.3935E-01
   ( 14,  2,  2)  ( 14,  2,  4)  (  9,  2,  2)  (  9,  3,  3)  ( 10,  2,  4)
  0  0.3332E-01  0 -0.1814E-01  0 -0.1365E-01  0 -0.5946E-02  0  0.4767E-02
   ( 12,  2,  2)  ( 10,  3,  3)  ( 10,  3,  3)  ( 10,  3,  4)  (  7,  1,  1)
  1   110.3      0   24.06      0   12.08      0  -11.07      0  -9.370    
   (  6,  1,  2)  (  6,  2,  2)  ( 13,  2,  2)  (  8,  2,  2)  (  8,  2,  2)
  0  -6.875      0  -5.108      0  -4.069      0  -3.507      0  -2.786    
   (  8,  2,  2)  (  6,  1,  1)  (  6,  1,  1)  (  6,  1,  1)  (  6,  1,  1)
  0  -2.199      0  -1.685      0 -0.9876      0 -0.6546      0 -0.4522    
   (  6,  1,  1)  (  6,  1,  1)  (  6,  1,  1)  (  6,  1,  1)  (  6,  1,  1)
  0 -0.2990      0 -0.2232      0 -0.1462      0 -0.8028E-01  0 -0.4454E-01
   (  6,  1,  1)  (  6,  1,  1)  (  6,  1,  1)  (  6,  1,  1)  (  6,  1,  1)
  1  -32.50      0   15.42      0   7.653      0   4.471      0   3.491    
   (  7,  3,  3)  (  5,  1,  1)  (  5,  1,  1)  (  5,  1,  1)  (  5,  1,  1)
  0   2.164      0   1.622      0  0.8280      0  0.5285      0  0.3480    
   (  5,  1,  1)  (  5,  1,  1)  (  5,  1,  1)  (  5,  1,  1)  (  5,  1,  1)
  0  0.2208      0  0.1742      0  0.1178      0  0.8880E-01  0  0.6285E-01
   (  5,  1,  1)  (  5,  1,  1)  (  5,  1,  1)  (  5,  1,  1)  (  5,  1,  1)
  0  0.3882E-01  1  -5.660      0  -3.217      0  -2.048      0 -0.9658    
   (  5,  1,  1)  (  7,  2,  2)  (  7,  2,  2)  (  7,  2,  2)  (  7,  2,  2)
  0 -0.6807      0  0.4324      0  0.3221      0  0.1923      0  0.1387    
   (  7,  2,  2)  (  8,  2,  2)  (  8,  2,  2)  (  8,  2,  2)  (  8,  2,  2)
  0  0.7619E-01  0  0.5038E-01  1  0.3110      0  0.2640      0  0.1292    
   (  8,  2,  2)  (  8,  2,  2)  (  5,  1,  1)  (  5,  1,  1)  (  5,  1,  1)
  0  0.8377E-01  0  0.5063E-01  0  0.3800E-01  1  0.3433E-01
   (  5,  1,  1)  (  5,  1,  1)  (  5,  1,  1)  (  7,  3,  2)



 OUTPUT CONTROL FOR STRESS PERIOD    2   TIME STEP    2
    SAVE BUDGET
    PRINT HEAD FOR ALL LAYERS
    PRINT BUDGET
 UBDSV1 SAVING "         STORAGE" ON UNIT  32 AT TIME STEP  2, STRESS PERIOD   2
 UBDSV2 SAVING "   CONSTANT HEAD" ON UNIT  32 AT TIME STEP  2, STRESS PERIOD   2
 UBDSV1 SAVING "FLOW RIGHT FACE " ON UNIT  32 AT TIME STEP  2, STRESS PERIOD   2
 UBDSV1 SAVING "FLOW FRONT FACE " ON UNIT  32 AT TIME STEP  2, STRESS PERIOD   2
 UBDSV1 SAVING "FLOW LOWER FACE " ON UNIT  32 AT TIME STEP  2, STRESS PERIOD   2
 UBDSV3 SAVING "        RECHARGE" ON UNIT  32 AT TIME STEP  2, STRESS PERIOD   2
1
              HEAD IN LAYER   1 AT END OF TIME STEP   2 IN STRESS PERIOD    2
  ---------------------------------------------------------------------------

            1           2           3           4           5           6           7           8           9          10
           11          12          13          14          15          16          17          18          19          20
           21          22          23          24          25          26          27          28          29          30
           31          32          33          34          35          36          37          38          39          40
 ........................................................................................................................
   1   -99.90      -99.90      -99.90      -99.90      -99.90      -99.90      -99.90      -99.90      -99.90      -99.90    
       -99.90      -99.90      -99.90      -99.90      -99.90      -99.90      -99.90      -99.90      -99.90      -99.90    
       -99.90      -99.90      -99.90      -99.90      -99.90      -99.90      -99.90      -99.90      -99.90      -99.90    
       -99.90      -99.90      -99.90      -99.90      -99.90      -99.90      -99.90      -99.90      -99.90      -99.90    
   2   -99.90      -99.90      -99.90      -99.90      -99.90      -99.90      -99.90      -99.90      -99.90      -99.90    
       -99.90      -99.90      -99.90      -99.90      -99.90      -99.90      -99.90      -99.90      -99.90      -99.90    
       -99.90      -99.90      -99.90      -99.90      -99.90      -99.90      -99.90      -99.90      -99.90      -99.90    
       -99.90      -99.90      -99.90      -99.90      -99.90      -99.90      -99.90      -99.90      -99.90      -99.90    
   3   -99.90      -99.90      -99.90      -99.90      -99.90      -99.90      -99.90      -99.90      -99.90      -99.90    
       -99.90      -99.90      -99.90      -99.90      -99.90      -99.90      -99.90      -99.90      -99.90      -99.90    
       -99.90      -99.90      -99.90      -99.90      -99.90      -99.90      -99.90      -99.90      -99.90      -99.90    
       -99.90      -99.90      -99.90      -99.90      -99.90      -99.90      -99.90      -99.90      -99.90      -99.90    
   4   -99.90      -99.90      -99.90      -99.90      -99.90      -99.90      -99.90      -99.90      -99.90      -99.90    
       -99.90      -99.90      -99.90      -99.90      -99.90      -99.90      -99.90      -99.90      -99.90      -99.90    
       -99.90      -99.90      -99.90      -99.90      -99.90      -99.90      -99.90      -99.90      -99.90      -99.90    
       -99.90      -99.90      -99.90      -99.90      -99.90      -99.90      -99.90      -99.90      -99.90      -99.90    
   5   -99.90      -99.90      -99.90      -99.90      -99.90      -99.90      -99.90      -99.90      -99.90      -99.90    
       -99.90      -99.90      -99.90      -99.90      -99.90      -99.90      -99.90      -99.90      -99.90      -99.90    
       -99.90      -99.90      -99.90      -99.90      -99.90      -99.90      -99.90      -99.90      -99.90      -99.90    
       -99.90      -99.90      -99.90      -99.90      -99.90      -99.90      -99.90      -99.90      -99.90      -99.90    
   6   -99.90      -99.90      -99.90      -99.90      -99.90      -99.90      -99.90      -99.90      -99.90      -99.90    
       -99.90      -99.90      -99.90      -99.90      -99.90      -99.90      -99.90      -99.90      -99.90      -99.90    
       -99.90      -99.90      -99.90      -99.90      -99.90      -99.90      -99.90      -99.90      -99.90      -99.90    
       -99.90      -99.90      -99.90      -99.90      -99.90      -99.90      -99.90      -99.90      -99.90      -99.90    
   7   -99.90      -99.90      -99.90      -99.90      -99.90      -99.90      -99.90      -99.90      -99.90      -99.90    
       -99.90      -99.90      -99.90      -99.90      -99.90      -99.90      -99.90      -99.90      -99.90      -99.90    
       -99.90      -99.90      -99.90      -99.90      -99.90      -99.90      -99.90      -99.90      -99.90      -99.90    
       -99.90      -99.90      -99.90      -99.90      -99.90      -99.90      -99.90      -99.90      -99.90      -99.90    
   8   -99.90      -99.90      -99.90      -99.90      -99.90      -99.90      -99.90      -99.90      -99.90      -99.90    
       -99.90      -99.90      -99.90      -99.90      -99.90      -99.90      -99.90      -99.90      -99.90      -99.90    
       -99.90      -99.90      -99.90      -99.90      -99.90      -99.90      -99.90      -99.90      -99.90      -99.90    
       -99.90      -99.90      -99.90      -99.90      -99.90      -99.90      -99.90      -99.90      -99.90      -99.90    
   9   -99.90      -99.90      -99.90      -99.90      -99.90      -99.90      -99.90      -99.90      -99.90      -99.90    
       -99.90      -99.90      -99.90      -99.90      -99.90      -99.90      -99.90      -99.90      -99.90      -99.90    
       -99.90      -99.90      -99.90      -99.90      -99.90      -99.90      -99.90      -99.90      -99.90      -99.90    
       -99.90      -99.90      -99.90      -99.90      -99.90      -99.90      -99.90      -99.90      -99.90      -99.90    
  10   -99.90      -99.90      -99.90      -99.90      -99.90      -99.90      -99.90      -99.90      -99.90      -99.90    
       -99.90      -99.90      -99.90      -99.90      -99.90      -99.90      -99.90      -99.90      -99.90      -99.90    
       -99.90      -99.90      -99.90      -99.90      -99.90      -99.90      -99.90      -99.90      -99.90      -99.90    
       -99.90      -99.90      -99.90      -99.90      -99.90      -99.90      -99.90      -99.90      -99.90      -99.90    
  11   -99.90      -99.90      -99.90      -99.90      -99.90      -99.90      -99.90      -99.90      -99.90      -99.90    
       -99.90      -99.90      -99.90      -99.90      -99.90      -99.90      -99.90      -99.90      -99.90      -99.90    
       -99.90      -99.90      -99.90      -99.90      -99.90      -99.90      -99.90      -99.90      -99.90      -99.90    
       -99.90      -99.90      -99.90      -99.90      -99.90      -99.90      -99.90      -99.90      -99.90      -99.90    
  12   -99.90      -99.90      -99.90      -99.90      -99.90      -99.90      -99.90      -99.90      -99.90      -99.90    
       -99.90      -99.90      -99.90      -99.90      -99.90      -99.90      -99.90      -99.90      -99.90      -99.90    
       -99.90      -99.90      -99.90      -99.90      -99.90      -99.90      -99.90      -99.90      -99.90      -99.90    
       -99.90      -99.90      -99.90      -99.90      -99.90      -99.90      -99.90      -99.90      -99.90      -99.90    
  13   -99.90      -99.90      -99.90      -99.90      -99.90      -99.90      -99.90      -99.90      -99.90      -99.90    
       -99.90      -99.90      -99.90      -99.90      -99.90      -99.90      -99.90      -99.90      -99.90      -99.90    
       -99.90      -99.90      -99.90      -99.90      -99.90      -99.90      -99.90      -99.90      -99.90      -99.90    
       -99.90      -99.90      -99.90      -99.90      -99.90      -99.90      -99.90      -99.90      -99.90      -99.90    
  14   -99.90      -99.90      -99.90      -99.90      -99.90      -99.90      -99.90      -99.90      -99.90      -99.90    
       -99.90      -99.90      -99.90      -99.90      -99.90      -99.90      -99.90      -99.90      -99.90      -99.90    
       -99.90      -99.90      -99.90      -99.90      -99.90      -99.90      -99.90      -99.90      -99.90      -99.90    
       -99.90      -99.90      -99.90      -99.90      -99.90      -99.90      -99.90      -99.90      -99.90      -99.90    
  15   -99.90      -99.90      -99.90      -99.90      -99.90      -99.90      -99.90      -99.90      -99.90      -99.90    
       -99.90      -99.90      -99.90      -99.90      -99.90      -99.90      -99.90      -99.90      -99.90      -99.90    
       -99.90      -99.90      -99.90      -99.90      -99.90      -99.90      -99.90      -99.90      -99.90      -99.90    
       -99.90      -99.90      -99.90      -99.90      -99.90      -99.90      -99.90      -99.90      -99.90      -99.90    
  16   -99.90      -99.90      -99.90      -99.90      -99.90      -99.90      -99.90      -99.90      -99.90      -99.90    
       -99.90      -99.90      -99.90      -99.90      -99.90      -99.90      -99.90      -99.90      -99.90      -99.90    
       -99.90      -99.90      -99.90      -99.90      -99.90      -99.90      -99.90      -99.90      -99.90      -99.90    
       -99.90      -99.90      -99.90      -99.90      -99.90      -99.90      -99.90      -99.90      -99.90      -99.90    
  17   -99.90      -99.90      -99.90      -99.90      -99.90      -99.90      -99.90      -99.90      -99.90      -99.90    
       -99.90      -99.90      -99.90      -99.90      -99.90      -99.90      -99.90      -99.90      -99.90      -99.90    
       -99.90      -99.90      -99.90      -99.90      -99.90      -99.90      -99.90      -99.90      -99.90      -99.90    
       -99.90      -99.90      -99.90      -99.90      -99.90      -99.90      -99.90      -99.90      -99.90      -99.90    
  18   -99.90      -99.90      -99.90      -99.90      -99.90      -99.90      -99.90      -99.90      -99.90      -99.90    
       -99.90      -99.90      -99.90      -99.90      -99.90      -99.90      -99.90      -99.90      -99.90      -99.90    
       -99.90      -99.90      -99.90      -99.90      -99.90      -99.90      -99.90      -99.90      -99.90      -99.90    
       -99.90      -99.90      -99.90      -99.90      -99.90      -99.90      -99.90      -99.90      -99.90      -99.90    
  19   -99.90      -99.90      -99.90      -99.90      -99.90      -99.90      -99.90      -99.90      -99.90      -99.90    
       -99.90      -99.90      -99.90      -99.90      -99.90      -99.90      -99.90      -99.90      -99.90      -99.90    
       -99.90      -99.90      -99.90      -99.90      -99.90      -99.90      -99.90      -99.90      -99.90      -99.90    
       -99.90      -99.90      -99.90      -99.90      -99.90      -99.90      -99.90      -99.90      -99.90      -99.90    
  20   -99.90      -99.90      -99.90      -99.90      -99.90      -99.90      -99.90      -99.90      -99.90      -99.90    
       -99.90      -99.90      -99.90      -99.90      -99.90      -99.90      -99.90      -99.90      -99.90      -99.90    
       -99.90      -99.90      -99.90      -99.90      -99.90      -99.90      -99.90      -99.90      -99.90      -99.90    
       -99.90      -99.90      -99.90      -99.90      -99.90      -99.90      -99.90      -99.90      -99.90      -99.90    
  21   -99.90      -99.90      -99.90      -99.90      -99.90      -99.90      -99.90      -99.90      -99.90      -99.90    
       -99.90      -99.90      -99.90      -99.90      -99.90      -99.90      -99.90      -99.90      -99.90      -99.90    
       -99.90      -99.90      -99.90      -99.90      -99.90      -99.90      -99.90      -99.90      -99.90      -99.90    
       -99.90      -99.90      -99.90      -99.90      -99.90      -99.90      -99.90      -99.90      -99.90      -99.90    
  22   -99.90      -99.90      -99.90      -99.90      -99.90      -99.90      -99.90      -99.90      -99.90      -99.90    
       -99.90      -99.90      -99.90      -99.90      -99.90      -99.90      -99.90      -99.90      -99.90      -99.90    
       -99.90      -99.90      -99.90      -99.90      -99.90      -99.90      -99.90      -99.90      -99.90      -99.90    
       -99.90      -99.90      -99.90      -99.90      -99.90      -99.90      -99.90      -99.90      -99.90      -99.90    
  23   -99.90      -99.90      -99.90      -99.90      -99.90      -99.90      -99.90      -99.90      -99.90      -99.90    
       -99.90      -99.90      -99.90      -99.90      -99.90      -99.90      -99.90      -99.90      -99.90      -99.90    
       -99.90      -99.90      -99.90      -99.90      -99.90      -99.90      -99.90      -99.90      -99.90      -99.90    
       -99.90      -99.90      -99.90      -99.90      -99.90      -99.90      -99.90      -99.90      -99.90      -99.90    
  24   -99.90      -99.90      -99.90      -99.90      -99.90      -99.90      -99.90      -99.90      -99.90      -99.90    
       -99.90      -99.90      -99.90      -99.90      -99.90      -99.90      -99.90      -99.90      -99.90      -99.90    
       -99.90      -99.90      -99.90      -99.90      -99.90      -99.90      -99.90      -99.90      -99.90      -99.90    
       -99.90      -99.90      -99.90      -99.90      -99.90      -99.90      -99.90      -99.90      -99.90      -99.90    
  25   -99.90      -99.90      -99.90      -99.90      -99.90      -99.90      -99.90      -99.90      -99.90      -99.90    
       -99.90      -99.90      -99.90      -99.90      -99.90      -99.90      -99.90      -99.90      -99.90      -99.90    
       -99.90      -99.90      -99.90      -99.90      -99.90      -99.90      -99.90      -99.90      -99.90      -99.90    
       -99.90      -99.90      -99.90      -99.90      -99.90      -99.90      -99.90      -99.90      -99.90      -99.90    
  26   -99.90      -99.90      -99.90      -99.90      -99.90      -99.90      -99.90      -99.90      -99.90      -99.90    
       -99.90      -99.90      -99.90      -99.90      -99.90      -99.90      -99.90      -99.90      -99.90      -99.90    
       -99.90      -99.90      -99.90      -99.90      -99.90      -99.90      -99.90      -99.90      -99.90      -99.90    
       -99.90      -99.90      -99.90      -99.90      -99.90      -99.90      -99.90      -99.90      -99.90      -99.90    
  27   -99.90      -99.90      -99.90      -99.90      -99.90      -99.90      -99.90      -99.90      -99.90      -99.90    
       -99.90      -99.90      -99.90      -99.90      -99.90      -99.90      -99.90      -99.90      -99.90      -99.90    
       -99.90      -99.90      -99.90      -99.90      -99.90      -99.90      -99.90      -99.90      -99.90      -99.90    
       -99.90      -99.90      -99.90      -99.90      -99.90      -99.90      -99.90      -99.90      -99.90      -99.90    
  28   -99.90      -99.90      -99.90      -99.90      -99.90      -99.90      -99.90      -99.90      -99.90      -99.90    
       -99.90      -99.90      -99.90      -99.90      -99.90      -99.90      -99.90      -99.90      -99.90      -99.90    
       -99.90      -99.90      -99.90      -99.90      -99.90      -99.90      -99.90      -99.90      -99.90      -99.90    
       -99.90      -99.90      -99.90      -99.90      -99.90      -99.90      -99.90      -99.90      -99.90      -99.90    
  29   -99.90      -99.90      -99.90      -99.90      -99.90      -99.90      -99.90      -99.90      -99.90      -99.90    
       -99.90      -99.90      -99.90      -99.90      -99.90      -99.90      -99.90      -99.90      -99.90      -99.90    
       -99.90      -99.90      -99.90      -99.90      -99.90      -99.90      -99.90      -99.90      -99.90      -99.90    
       -99.90      -99.90      -99.90      -99.90      -99.90      -99.90      -99.90      -99.90      -99.90      -99.90    
  30   -99.90      -99.90      -99.90      -99.90      -99.90      -99.90      -99.90      -99.90      -99.90      -99.90    
       -99.90      -99.90      -99.90      -99.90      -99.90      -99.90      -99.90      -99.90      -99.90      -99.90    
       -99.90      -99.90      -99.90      -99.90      -99.90      -99.90      -99.90      -99.90      -99.90      -99.90    
       -99.90      -99.90      -99.90      -99.90      -99.90      -99.90      -99.90      -99.90      -99.90      -99.90    
  31   -99.90      -99.90      -99.90      -99.90      -99.90      -99.90      -99.90      -99.90      -99.90      -99.90    
       -99.90      -99.90      -99.90      -99.90      -99.90      -99.90      -99.90      -99.90      -99.90      -99.90    
       -99.90      -99.90      -99.90      -99.90      -99.90      -99.90      -99.90      -99.90      -99.90      -99.90    
       -99.90      -99.90      -99.90      -99.90      -99.90      -99.90      -99.90      -99.90      -99.90      -99.90    
  32   -99.90      -99.90      -99.90      -99.90      -99.90      -99.90      -99.90      -99.90      -99.90      -99.90    
       -99.90      -99.90      -99.90      -99.90      -99.90      -99.90      -99.90      -99.90      -99.90      -99.90    
       -99.90      -99.90      -99.90      -99.90      -99.90      -99.90      -99.90      -99.90      -99.90      -99.90    
       -99.90      -99.90      -99.90      -99.90      -99.90      -99.90      -99.90      -99.90      -99.90      -99.90    
  33   -99.90      -99.90      -99.90      -99.90      -99.90      -99.90      -99.90      -99.90      -99.90      -99.90    
       -99.90      -99.90      -99.90      -99.90      -99.90      -99.90      -99.90      -99.90      -99.90      -99.90    
       -99.90      -99.90      -99.90      -99.90      -99.90      -99.90      -99.90      -99.90      -99.90      -99.90    
       -99.90      -99.90      -99.90      -99.90      -99.90      -99.90      -99.90      -99.90      -99.90      -99.90    
  34   -99.90      -99.90      -99.90      -99.90      -99.90      -99.90      -99.90      -99.90      -99.90      -99.90    
       -99.90      -99.90      -99.90      -99.90      -99.90      -99.90      -99.90      -99.90      -99.90      -99.90    
       -99.90      -99.90      -99.90      -99.90      -99.90      -99.90      -99.90      -99.90      -99.90      -99.90    
       -99.90      -99.90      -99.90      -99.90      -99.90      -99.90      -99.90      -99.90      -99.90      -99.90    
  35   -99.90      -99.90      -99.90      -99.90      -99.90      -99.90      -99.90      -99.90      -99.90      -99.90    
       -99.90      -99.90      -99.90      -99.90      -99.90      -99.90      -99.90      -99.90      -99.90      -99.90    
       -99.90      -99.90      -99.90      -99.90      -99.90      -99.90      -99.90      -99.90      -99.90      -99.90    
       -99.90      -99.90      -99.90      -99.90      -99.90      -99.90      -99.90      -99.90      -99.90      -99.90    
  36   -99.90      -99.90      -99.90      -99.90      -99.90      -99.90      -99.90      -99.90      -99.90      -99.90    
       -99.90      -99.90      -99.90      -99.90      -99.90      -99.90      -99.90      -99.90      -99.90      -99.90    
       -99.90      -99.90      -99.90      -99.90      -99.90      -99.90      -99.90      -99.90      -99.90      -99.90    
       -99.90      -99.90      -99.90      -99.90      -99.90      -99.90      -99.90      -99.90      -99.90      -99.90    
  37   -99.90      -99.90      -99.90      -99.90      -99.90      -99.90      -99.90      -99.90      -99.90      -99.90    
       -99.90      -99.90      -99.90      -99.90      -99.90      -99.90      -99.90      -99.90      -99.90      -99.90    
       -99.90      -99.90      -99.90      -99.90      -99.90      -99.90      -99.90      -99.90      -99.90      -99.90    
       -99.90      -99.90      -99.90      -99.90      -99.90      -99.90      -99.90      -99.90      -99.90      -99.90    
  38   -99.90      -99.90      -99.90      -99.90      -99.90      -99.90      -99.90      -99.90      -99.90      -99.90    
       -99.90      -99.90      -99.90      -99.90      -99.90      -99.90      -99.90      -99.90      -99.90      -99.90    
       -99.90      -99.90      -99.90      -99.90      -99.90      -99.90      -99.90      -99.90      -99.90      -99.90    
       -99.90      -99.90      -99.90      -99.90      -99.90      -99.90      -99.90      -99.90      -99.90      -99.90    
  39   -99.90      -99.90      -99.90      -99.90      -99.90      -99.90      -99.90      -99.90      -99.90      -99.90    
       -99.90      -99.90      -99.90      -99.90      -99.90      -99.90      -99.90      -99.90      -99.90      -99.90    
       -99.90      -99.90      -99.90      -99.90      -99.90      -99.90      -99.90      -99.90      -99.90      -99.90    
       -99.90      -99.90      -99.90      -99.90      -99.90      -99.90      -99.90      -99.90      -99.90      -99.90    
  40   -99.90      -99.90      -99.90      -99.90      -99.90      -99.90      -99.90      -99.90      -99.90      -99.90    
       -99.90      -99.90      -99.90      -99.90      -99.90      -99.90      -99.90      -99.90      -99.90      -99.90    
       -99.90      -99.90      -99.90      -99.90      -99.90      -99.90      -99.90      -99.90      -99.90      -99.90    
       -99.90      -99.90      -99.90      -99.90      -99.90      -99.90      -99.90      -99.90      -99.90      -99.90    
1
              HEAD IN LAYER   2 AT END OF TIME STEP   2 IN STRESS PERIOD    2
  ---------------------------------------------------------------------------

            1           2           3           4           5           6           7           8           9          10
           11          12          13          14          15          16          17          18          19          20
           21          22          23          24          25          26          27          28          29          30
           31          32          33          34          35          36          37          38          39          40
 ........................................................................................................................
   1   -99.90      -99.90      -99.90      -99.90      -99.90      -99.90      -99.90      -99.90      -99.90      -99.90    
       -99.90      -99.90      -99.90      -99.90      -99.90      -99.90      -99.90      -99.90      -99.90      -99.90    
       -99.90      -99.90      -99.90      -99.90      -99.90      -99.90      -99.90      -99.90      -99.90      -99.90    
       -99.90      -99.90      -99.90      -99.90      -99.90      -99.90      -99.90      -99.90      -99.90      -99.90    
   2   -99.90      -99.90      -99.90      -99.90      -99.90      -99.90      -99.90      -99.90      -99.90      -99.90    
       -99.90      -99.90      -99.90      -99.90      -99.90      -99.90      -99.90      -99.90      -99.90      -99.90    
       -99.90      -99.90      -99.90      -99.90      -99.90      -99.90      -99.90      -99.90      -99.90      -99.90    
       -99.90      -99.90      -99.90      -99.90      -99.90      -99.90      -99.90      -99.90      -99.90      -99.90    
   3   -99.90      -99.90      -99.90      -99.90      -99.90      -99.90      -99.90      -99.90      -99.90      -99.90    
       -99.90      -99.90      -99.90      -99.90      -99.90      -99.90      -99.90      -99.90      -99.90      -99.90    
       -99.90      -99.90      -99.90      -99.90      -99.90      -99.90      -99.90      -99.90      -99.90      -99.90    
       -99.90      -99.90      -99.90      -99.90      -99.90      -99.90      -99.90      -99.90      -99.90      -99.90    
   4   -99.90      -99.90      -99.90      -99.90      -99.90      -99.90      -99.90      -99.90      -99.90      -99.90    
       -99.90      -99.90      -99.90      -99.90      -99.90      -99.90      -99.90      -99.90      -99.90      -99.90    
       -99.90      -99.90      -99.90      -99.90      -99.90      -99.90      -99.90      -99.90      -99.90      -99.90    
       -99.90      -99.90      -99.90      -99.90      -99.90      -99.90      -99.90      -99.90      -99.90      -99.90    
   5   -99.90      -99.90      -99.90      -99.90      -99.90      -99.90      -99.90      -99.90      -99.90      -99.90    
       -99.90      -99.90      -99.90      -99.90      -99.90      -99.90      -99.90      -99.90      -99.90      -99.90    
       -99.90      -99.90      -99.90      -99.90      -99.90      -99.90      -99.90      -99.90      -99.90      -99.90    
       -99.90      -99.90      -99.90      -99.90      -99.90      -99.90      -99.90      -99.90      -99.90      -99.90    
   6   -99.90      -99.90      -99.90      -99.90      -99.90      -99.90      -99.90      -99.90      -99.90      -99.90    
       -99.90      -99.90      -99.90      -99.90      -99.90      -99.90      -99.90      -99.90      -99.90      -99.90    
       -99.90      -99.90      -99.90      -99.90      -99.90      -99.90      -99.90      -99.90      -99.90      -99.90    
       -99.90      -99.90      -99.90      -99.90      -99.90      -99.90      -99.90      -99.90      -99.90      -99.90    
   7   -99.90      -99.90      -99.90      -99.90      -99.90      -99.90      -99.90      -99.90      -99.90      -99.90    
       -99.90      -99.90      -99.90      -99.90      -99.90      -99.90      -99.90      -99.90      -99.90      -99.90    
       -99.90      -99.90      -99.90      -99.90      -99.90      -99.90      -99.90      -99.90      -99.90      -99.90    
       -99.90      -99.90      -99.90      -99.90      -99.90      -99.90      -99.90      -99.90      -99.90      -99.90    
   8   -99.90      -99.90      -99.90      -99.90      -99.90      -99.90      -99.90      -99.90      -99.90      -99.90    
       -99.90      -99.90      -99.90      -99.90      -99.90      -99.90      -99.90      -99.90      -99.90      -99.90    
       -99.90      -99.90      -99.90      -99.90      -99.90      -99.90      -99.90      -99.90      -99.90      -99.90    
       -99.90      -99.90      -99.90      -99.90      -99.90      -99.90      -99.90      -99.90      -99.90      -99.90    
   9   -99.90      -99.90      -99.90      -99.90      -99.90      -99.90      -99.90      -99.90      -99.90      -99.90    
       -99.90      -99.90      -99.90      -99.90      -99.90      -99.90      -99.90      -99.90      -99.90      -99.90    
       -99.90      -99.90      -99.90      -99.90      -99.90      -99.90      -99.90      -99.90      -99.90      -99.90    
       -99.90      -99.90      -99.90      -99.90      -99.90      -99.90      -99.90      -99.90      -99.90      -99.90    
  10   -99.90      -99.90      -99.90      -99.90      -99.90      -99.90      -99.90      -99.90      -99.90      -99.90    
       -99.90      -99.90      -99.90      -99.90      -99.90      -99.90      -99.90      -99.90      -99.90      -99.90    
       -99.90      -99.90      -99.90      -99.90      -99.90      -99.90      -99.90      -99.90      -99.90      -99.90    
       -99.90      -99.90      -99.90      -99.90      -99.90      -99.90      -99.90      -99.90      -99.90      -99.90    
  11   -99.90      -99.90      -99.90      -99.90      -99.90      -99.90      -99.90      -99.90      -99.90      -99.90    
       -99.90      -99.90      -99.90      -99.90      -99.90      -99.90      -99.90      -99.90      -99.90      -99.90    
       -99.90      -99.90      -99.90      -99.90      -99.90      -99.90      -99.90      -99.90      -99.90      -99.90    
       -99.90      -99.90      -99.90      -99.90      -99.90      -99.90      -99.90      -99.90      -99.90      -99.90    
  12   -99.90      -99.90      -99.90      -99.90      -99.90      -99.90      -99.90      -99.90      -99.90      -99.90    
       -99.90      -99.90      -99.90      -99.90      -99.90      -99.90      -99.90      -99.90      -99.90      -99.90    
       -99.90      -99.90      -99.90      -99.90      -99.90      -99.90      -99.90      -99.90      -99.90      -99.90    
       -99.90      -99.90      -99.90      -99.90      -99.90      -99.90      -99.90      -99.90      -99.90      -99.90    
  13   -99.90      -99.90      -99.90      -99.90      -99.90      -99.90      -99.90      -99.90      -99.90      -99.90    
       -99.90      -99.90      -99.90      -99.90      -99.90      -99.90      -99.90      -99.90      -99.90      -99.90    
       -99.90      -99.90      -99.90      -99.90      -99.90      -99.90      -99.90      -99.90      -99.90      -99.90    
       -99.90      -99.90      -99.90      -99.90      -99.90      -99.90      -99.90      -99.90      -99.90      -99.90    
  14   -99.90      -99.90      -99.90      -99.90      -99.90      -99.90      -99.90      -99.90      -99.90      -99.90    
       -99.90      -99.90      -99.90      -99.90      -99.90      -99.90      -99.90      -99.90      -99.90      -99.90    
       -99.90      -99.90      -99.90      -99.90      -99.90      -99.90      -99.90      -99.90      -99.90      -99.90    
       -99.90      -99.90      -99.90      -99.90      -99.90      -99.90      -99.90      -99.90      -99.90      -99.90    
  15   -99.90      -99.90      -99.90      -99.90      -99.90      -99.90      -99.90      -99.90      -99.90      -99.90    
       -99.90      -99.90      -99.90      -99.90      -99.90      -99.90      -99.90      -99.90      -99.90      -99.90    
       -99.90      -99.90      -99.90      -99.90      -99.90      -99.90      -99.90      -99.90      -99.90      -99.90    
       -99.90      -99.90      -99.90      -99.90      -99.90      -99.90      -99.90      -99.90      -99.90      -99.90    
  16   -99.90      -99.90      -99.90      -99.90      -99.90      -99.90      -99.90      -99.90      -99.90      -99.90    
       -99.90      -99.90      -99.90      -99.90      -99.90      -99.90      -99.90      -99.90      -99.90      -99.90    
       -99.90      -99.90      -99.90      -99.90      -99.90      -99.90      -99.90      -99.90      -99.90      -99.90    
       -99.90      -99.90      -99.90      -99.90      -99.90      -99.90      -99.90      -99.90      -99.90      -99.90    
  17   -99.90      -99.90      -99.90      -99.90      -99.90      -99.90      -99.90      -99.90      -99.90      -99.90    
       -99.90      -99.90      -99.90      -99.90      -99.90      -99.90      -99.90      -99.90      -99.90      -99.90    
       -99.90      -99.90      -99.90      -99.90      -99.90      -99.90      -99.90      -99.90      -99.90      -99.90    
       -99.90      -99.90      -99.90      -99.90      -99.90      -99.90      -99.90      -99.90      -99.90      -99.90    
  18   -99.90      -99.90      -99.90      -99.90      -99.90      -99.90      -99.90      -99.90      -99.90      -99.90    
       -99.90      -99.90      -99.90      -99.90      -99.90      -99.90      -99.90      -99.90      -99.90      -99.90    
       -99.90      -99.90      -99.90      -99.90      -99.90      -99.90      -99.90      -99.90      -99.90      -99.90    
       -99.90      -99.90      -99.90      -99.90      -99.90      -99.90      -99.90      -99.90      -99.90      -99.90    
  19   -99.90      -99.90      -99.90      -99.90      -99.90      -99.90      -99.90      -99.90      -99.90      -99.90    
       -99.90      -99.90      -99.90      -99.90      -99.90      -99.90      -99.90      -99.90      -99.90      -99.90    
       -99.90      -99.90      -99.90      -99.90      -99.90      -99.90      -99.90      -99.90      -99.90      -99.90    
       -99.90      -99.90      -99.90      -99.90      -99.90      -99.90      -99.90      -99.90      -99.90      -99.90    
  20   -99.90      -99.90      -99.90      -99.90      -99.90      -99.90      -99.90      -99.90      -99.90      -99.90    
       -99.90      -99.90      -99.90      -99.90      -99.90      -99.90      -99.90      -99.90      -99.90      -99.90    
       -99.90      -99.90      -99.90      -99.90      -99.90      -99.90      -99.90      -99.90      -99.90      -99.90    
       -99.90      -99.90      -99.90      -99.90      -99.90      -99.90      -99.90      -99.90      -99.90      -99.90    
  21   -99.90      -99.90      -99.90      -99.90      -99.90      -99.90      -99.90      -99.90      -99.90      -99.90    
       -99.90      -99.90      -99.90      -99.90      -99.90      -99.90      -99.90      -99.90      -99.90      -99.90    
       -99.90      -99.90      -99.90      -99.90      -99.90      -99.90      -99.90      -99.90      -99.90      -99.90    
       -99.90      -99.90      -99.90      -99.90      -99.90      -99.90      -99.90      -99.90      -99.90      -99.90    
  22   -99.90      -99.90      -99.90      -99.90      -99.90      -99.90      -99.90      -99.90      -99.90      -99.90    
       -99.90      -99.90      -99.90      -99.90      -99.90      -99.90      -99.90      -99.90      -99.90      -99.90    
       -99.90      -99.90      -99.90      -99.90      -99.90      -99.90      -99.90      -99.90      -99.90      -99.90    
       -99.90      -99.90      -99.90      -99.90      -99.90      -99.90      -99.90      -99.90      -99.90      -99.90    
  23   -99.90      -99.90      -99.90      -99.90      -99.90      -99.90      -99.90      -99.90      -99.90      -99.90    
       -99.90      -99.90      -99.90      -99.90      -99.90      -99.90      -99.90      -99.90      -99.90      -99.90    
       -99.90      -99.90      -99.90      -99.90      -99.90      -99.90      -99.90      -99.90      -99.90      -99.90    
       -99.90      -99.90      -99.90      -99.90      -99.90      -99.90      -99.90      -99.90      -99.90      -99.90    
  24   -99.90      -99.90      -99.90      -99.90      -99.90      -99.90      -99.90      -99.90      -99.90      -99.90    
       -99.90      -99.90      -99.90      -99.90      -99.90      -99.90      -99.90      -99.90      -99.90      -99.90    
       -99.90      -99.90      -99.90      -99.90      -99.90      -99.90      -99.90      -99.90      -99.90      -99.90    
       -99.90      -99.90      -99.90      -99.90      -99.90      -99.90      -99.90      -99.90      -99.90      -99.90    
  25   -99.90      -99.90      -99.90      -99.90      -99.90      -99.90      -99.90      -99.90      -99.90      -99.90    
       -99.90      -99.90      -99.90      -99.90      -99.90      -99.90      -99.90      -99.90      -99.90      -99.90    
       -99.90      -99.90      -99.90      -99.90      -99.90      -99.90      -99.90      -99.90      -99.90      -99.90    
       -99.90      -99.90      -99.90      -99.90      -99.90      -99.90      -99.90      -99.90      -99.90      -99.90    
  26   -99.90      -99.90      -99.90      -99.90      -99.90      -99.90      -99.90      -99.90      -99.90      -99.90    
       -99.90      -99.90      -99.90      -99.90      -99.90      -99.90      -99.90      -99.90      -99.90      -99.90    
       -99.90      -99.90      -99.90      -99.90      -99.90      -99.90      -99.90      -99.90      -99.90      -99.90    
       -99.90      -99.90      -99.90      -99.90      -99.90      -99.90      -99.90      -99.90      -99.90      -99.90    
  27   -99.90      -99.90      -99.90      -99.90      -99.90      -99.90      -99.90      -99.90      -99.90      -99.90    
       -99.90      -99.90      -99.90      -99.90      -99.90      -99.90      -99.90      -99.90      -99.90      -99.90    
       -99.90      -99.90      -99.90      -99.90      -99.90      -99.90      -99.90      -99.90      -99.90      -99.90    
       -99.90      -99.90      -99.90      -99.90      -99.90      -99.90      -99.90      -99.90      -99.90      -99.90    
  28   -99.90      -99.90      -99.90      -99.90      -99.90      -99.90      -99.90      -99.90      -99.90      -99.90    
       -99.90      -99.90      -99.90      -99.90      -99.90      -99.90      -99.90      -99.90      -99.90      -99.90    
       -99.90      -99.90      -99.90      -99.90      -99.90      -99.90      -99.90      -99.90      -99.90      -99.90    
       -99.90      -99.90      -99.90      -99.90      -99.90      -99.90      -99.90      -99.90      -99.90      -99.90    
  29   -99.90      -99.90      -99.90      -99.90      -99.90      -99.90      -99.90      -99.90      -99.90      -99.90    
       -99.90      -99.90      -99.90      -99.90      -99.90      -99.90      -99.90      -99.90      -99.90      -99.90    
       -99.90      -99.90      -99.90      -99.90      -99.90      -99.90      -99.90      -99.90      -99.90      -99.90    
       -99.90      -99.90      -99.90      -99.90      -99.90      -99.90      -99.90      -99.90      -99.90      -99.90    
  30   -99.90      -99.90      -99.90      -99.90      -99.90      -99.90      -99.90      -99.90      -99.90      -99.90    
       -99.90      -99.90      -99.90      -99.90      -99.90      -99.90      -99.90      -99.90      -99.90      -99.90    
       -99.90      -99.90      -99.90      -99.90      -99.90      -99.90      -99.90      -99.90      -99.90      -99.90    
       -99.90      -99.90      -99.90      -99.90      -99.90      -99.90      -99.90      -99.90      -99.90      -99.90    
  31   -99.90      -99.90      -99.90      -99.90      -99.90      -99.90      -99.90      -99.90      -99.90      -99.90    
       -99.90      -99.90      -99.90      -99.90      -99.90      -99.90      -99.90      -99.90      -99.90      -99.90    
       -99.90      -99.90      -99.90      -99.90      -99.90      -99.90      -99.90      -99.90      -99.90      -99.90    
       -99.90      -99.90      -99.90      -99.90      -99.90      -99.90      -99.90      -99.90      -99.90      -99.90    
  32   -99.90      -99.90      -99.90      -99.90      -99.90      -99.90      -99.90      -99.90      -99.90      -99.90    
       -99.90      -99.90      -99.90      -99.90      -99.90      -99.90      -99.90      -99.90      -99.90      -99.90    
       -99.90      -99.90      -99.90      -99.90      -99.90      -99.90      -99.90      -99.90      -99.90      -99.90    
       -99.90      -99.90      -99.90      -99.90      -99.90      -99.90      -99.90      -99.90      -99.90      -99.90    
  33   -99.90      -99.90      -99.90      -99.90      -99.90      -99.90      -99.90      -99.90      -99.90      -99.90    
       -99.90      -99.90      -99.90      -99.90      -99.90      -99.90      -99.90      -99.90      -99.90      -99.90    
       -99.90      -99.90      -99.90      -99.90      -99.90      -99.90      -99.90      -99.90      -99.90      -99.90    
       -99.90      -99.90      -99.90      -99.90      -99.90      -99.90      -99.90      -99.90      -99.90      -99.90    
  34   -99.90      -99.90      -99.90      -99.90      -99.90      -99.90      -99.90      -99.90      -99.90      -99.90    
       -99.90      -99.90      -99.90      -99.90      -99.90      -99.90      -99.90      -99.90      -99.90      -99.90    
       -99.90      -99.90      -99.90      -99.90      -99.90      -99.90      -99.90      -99.90      -99.90      -99.90    
       -99.90      -99.90      -99.90      -99.90      -99.90      -99.90      -99.90      -99.90      -99.90      -99.90    
  35   -99.90      -99.90      -99.90      -99.90      -99.90      -99.90      -99.90      -99.90      -99.90      -99.90    
       -99.90      -99.90      -99.90      -99.90      -99.90      -99.90      -99.90      -99.90      -99.90      -99.90    
       -99.90      -99.90      -99.90      -99.90      -99.90      -99.90      -99.90      -99.90      -99.90      -99.90    
       -99.90      -99.90      -99.90      -99.90      -99.90      -99.90      -99.90      -99.90      -99.90      -99.90    
  36   -99.90      -99.90      -99.90      -99.90      -99.90      -99.90      -99.90      -99.90      -99.90      -99.90    
       -99.90      -99.90      -99.90      -99.90      -99.90      -99.90      -99.90      -99.90      -99.90      -99.90    
       -99.90      -99.90      -99.90      -99.90      -99.90      -99.90      -99.90      -99.90      -99.90      -99.90    
       -99.90      -99.90      -99.90      -99.90      -99.90      -99.90      -99.90      -99.90      -99.90      -99.90    
  37   -99.90      -99.90      -99.90      -99.90      -99.90      -99.90      -99.90      -99.90      -99.90      -99.90    
       -99.90      -99.90      -99.90      -99.90      -99.90      -99.90      -99.90      -99.90      -99.90      -99.90    
       -99.90      -99.90      -99.90      -99.90      -99.90      -99.90      -99.90      -99.90      -99.90      -99.90    
       -99.90      -99.90      -99.90      -99.90      -99.90      -99.90      -99.90      -99.90      -99.90      -99.90    
  38   -99.90      -99.90      -99.90      -99.90      -99.90      -99.90      -99.90      -99.90      -99.90      -99.90    
       -99.90      -99.90      -99.90      -99.90      -99.90      -99.90      -99.90      -99.90      -99.90      -99.90    
       -99.90      -99.90      -99.90      -99.90      -99.90      -99.90      -99.90      -99.90      -99.90      -99.90    
       -99.90      -99.90      -99.90      -99.90      -99.90      -99.90      -99.90      -99.90      -99.90      -99.90    
  39   -99.90      -99.90      -99.90      -99.90      -99.90      -99.90      -99.90      -99.90      -99.90      -99.90    
       -99.90      -99.90      -99.90      -99.90      -99.90      -99.90      -99.90      -99.90      -99.90      -99.90    
       -99.90      -99.90      -99.90      -99.90      -99.90      -99.90      -99.90      -99.90      -99.90      -99.90    
       -99.90      -99.90      -99.90      -99.90      -99.90      -99.90      -99.90      -99.90      -99.90      -99.90    
  40   -99.90      -99.90      -99.90      -99.90      -99.90      -99.90      -99.90      -99.90      -99.90      -99.90    
       -99.90      -99.90      -99.90      -99.90      -99.90      -99.90      -99.90      -99.90      -99.90      -99.90    
       -99.90      -99.90      -99.90      -99.90      -99.90      -99.90      -99.90      -99.90      -99.90      -99.90    
       -99.90      -99.90      -99.90      -99.90      -99.90      -99.90      -99.90      -99.90      -99.90      -99.90    
1
              HEAD IN LAYER   3 AT END OF TIME STEP   2 IN STRESS PERIOD    2
  ---------------------------------------------------------------------------

            1           2           3           4           5           6           7           8           9          10
           11          12          13          14          15          16          17          18          19          20
           21          22          23          24          25          26          27          28          29          30
           31          32          33          34          35          36          37          38          39          40
 ........................................................................................................................
   1   -99.90      -99.90      -99.90      -99.90      -99.90      -99.90      -99.90      -99.90      -99.90      -99.90    
       -99.90      -99.90      -99.90      -99.90      -99.90      -99.90      -99.90      -99.90      -99.90      -99.90    
       -99.90      -99.90      -99.90      -99.90      -99.90      -99.90      -99.90      -99.90      -99.90      -99.90    
       -99.90      -99.90      -99.90      -99.90      -99.90      -99.90      -99.90      -99.90      -99.90      -99.90    
   2   -99.90      -99.90      -99.90      -99.90      -99.90      -99.90      -99.90      -99.90      -99.90      -99.90    
       -99.90      -99.90      -99.90      -99.90      -99.90      -99.90      -99.90      -99.90      -99.90      -99.90    
       -99.90      -99.90      -99.90      -99.90      -99.90      -99.90      -99.90      -99.90      -99.90      -99.90    
       -99.90      -99.90      -99.90      -99.90      -99.90      -99.90      -99.90      -99.90      -99.90      -99.90    
   3   -99.90      -99.90      -99.90      -99.90      -99.90      -99.90      -99.90      -99.90      -99.90      -99.90    
       -99.90      -99.90      -99.90      -99.90      -99.90      -99.90      -99.90      -99.90      -99.90      -99.90    
       -99.90      -99.90      -99.90      -99.90      -99.90      -99.90      -99.90      -99.90      -99.90      -99.90    
       -99.90      -99.90      -99.90      -99.90      -99.90      -99.90      -99.90      -99.90      -99.90      -99.90    
   4   -99.90      -99.90      -99.90      -99.90      -99.90      -99.90      -99.90      -99.90      -99.90      -99.90    
       -99.90      -99.90      -99.90      -99.90      -99.90      -99.90      -99.90      -99.90      -99.90      -99.90    
       -99.90      -99.90      -99.90      -99.90      -99.90      -99.90      -99.90      -99.90      -99.90      -99.90    
       -99.90      -99.90      -99.90      -99.90      -99.90      -99.90      -99.90      -99.90      -99.90      -99.90    
   5   -99.90      -99.90      -99.90      -99.90      -99.90      -99.90      -99.90      -99.90      -99.90      -99.90    
       -99.90      -99.90      -99.90      -99.90      -99.90      -99.90      -99.90      -99.90      -99.90      -99.90    
       -99.90      -99.90      -99.90      -99.90      -99.90      -99.90      -99.90      -99.90      -99.90      -99.90    
       -99.90      -99.90      -99.90      -99.90      -99.90      -99.90      -99.90      -99.90      -99.90      -99.90    
   6   -99.90      -99.90      -99.90      -99.90      -99.90      -99.90      -99.90      -99.90      -99.90      -99.90    
       -99.90      -99.90      -99.90      -99.90      -99.90      -99.90      -99.90      -99.90      -99.90      -99.90    
       -99.90      -99.90      -99.90      -99.90      -99.90      -99.90      -99.90      -99.90      -99.90      -99.90    
       -99.90      -99.90      -99.90      -99.90      -99.90      -99.90      -99.90      -99.90      -99.90      -99.90    
   7   -99.90      -99.90      -99.90      -99.90      -99.90      -99.90      -99.90      -99.90      -99.90      -99.90    
       -99.90      -99.90      -99.90      -99.90      -99.90      -99.90      -99.90      -99.90      -99.90      -99.90    
       -99.90      -99.90      -99.90      -99.90      -99.90      -99.90      -99.90      -99.90      -99.90      -99.90    
       -99.90      -99.90      -99.90      -99.90      -99.90      -99.90      -99.90      -99.90      -99.90      -99.90    
   8   -99.90      -99.90      -99.90      -99.90      -99.90      -99.90      -99.90      -99.90      -99.90      -99.90    
       -99.90      -99.90      -99.90      -99.90      -99.90      -99.90      -99.90      -99.90      -99.90      -99.90    
       -99.90      -99.90      -99.90      -99.90      -99.90      -99.90      -99.90      -99.90      -99.90      -99.90    
       -99.90      -99.90      -99.90      -99.90      -99.90      -99.90      -99.90      -99.90      -99.90      -99.90    
   9   -99.90      -99.90      -99.90      -99.90      -99.90      -99.90      -99.90      -99.90      -99.90      -99.90    
       -99.90      -99.90      -99.90      -99.90      -99.90      -99.90      -99.90      -99.90      -99.90      -99.90    
       -99.90      -99.90      -99.90      -99.90      -99.90      -99.90      -99.90      -99.90      -99.90      -99.90    
       -99.90      -99.90      -99.90      -99.90      -99.90      -99.90      -99.90      -99.90      -99.90      -99.90    
  10   -99.90      -99.90      -99.90      -99.90      -99.90      -99.90      -99.90      -99.90      -99.90      -99.90    
       -99.90      -99.90      -99.90      -99.90      -99.90      -99.90      -99.90      -99.90      -99.90      -99.90    
       -99.90      -99.90      -99.90      -99.90      -99.90      -99.90      -99.90      -99.90      -99.90      -99.90    
       -99.90      -99.90      -99.90      -99.90      -99.90      -99.90      -99.90      -99.90      -99.90      -99.90    
  11   -99.90      -99.90      -99.90      -99.90      -99.90      -99.90      -99.90      -99.90      -99.90      -99.90    
       -99.90      -99.90      -99.90      -99.90      -99.90      -99.90      -99.90      -99.90      -99.90      -99.90    
       -99.90      -99.90      -99.90      -99.90      -99.90      -99.90      -99.90      -99.90      -99.90      -99.90    
       -99.90      -99.90      -99.90      -99.90      -99.90      -99.90      -99.90      -99.90      -99.90      -99.90    
  12   -99.90      -99.90      -99.90      -99.90      -99.90      -99.90      -99.90      -99.90      -99.90      -99.90    
       -99.90      -99.90      -99.90      -99.90      -99.90      -99.90      -99.90      -99.90      -99.90      -99.90    
       -99.90      -99.90      -99.90      -99.90      -99.90      -99.90      -99.90      -99.90      -99.90      -99.90    
       -99.90      -99.90      -99.90      -99.90      -99.90      -99.90      -99.90      -99.90      -99.90      -99.90    
  13   -99.90      -99.90      -99.90      -99.90      -99.90      -99.90      -99.90      -99.90      -99.90      -99.90    
       -99.90      -99.90      -99.90      -99.90      -99.90      -99.90      -99.90      -99.90      -99.90      -99.90    
       -99.90      -99.90      -99.90      -99.90      -99.90      -99.90      -99.90      -99.90      -99.90      -99.90    
       -99.90      -99.90      -99.90      -99.90      -99.90      -99.90      -99.90      -99.90      -99.90      -99.90    
  14   -99.90      -99.90      -99.90      -99.90      -99.90      -99.90      -99.90      -99.90      -99.90      -99.90    
       -99.90      -99.90      -99.90      -99.90      -99.90      -99.90      -99.90      -99.90      -99.90      -99.90    
       -99.90      -99.90      -99.90      -99.90      -99.90      -99.90      -99.90      -99.90      -99.90      -99.90    
       -99.90      -99.90      -99.90      -99.90      -99.90      -99.90      -99.90      -99.90      -99.90      -99.90    
  15   -99.90      -99.90      -99.90      -99.90      -99.90      -99.90      -99.90      -99.90      -99.90      -99.90    
       -99.90      -99.90      -99.90      -99.90      -99.90      -99.90      -99.90      -99.90      -99.90      -99.90    
       -99.90      -99.90      -99.90      -99.90      -99.90      -99.90      -99.90      -99.90      -99.90      -99.90    
       -99.90      -99.90      -99.90      -99.90      -99.90      -99.90      -99.90      -99.90      -99.90      -99.90    
  16   -99.90      -99.90      -99.90      -99.90      -99.90      -99.90      -99.90      -99.90      -99.90      -99.90    
       -99.90      -99.90      -99.90      -99.90      -99.90      -99.90      -99.90      -99.90      -99.90      -99.90    
       -99.90      -99.90      -99.90      -99.90      -99.90      -99.90      -99.90      -99.90      -99.90      -99.90    
       -99.90      -99.90      -99.90      -99.90      -99.90      -99.90      -99.90      -99.90      -99.90      -99.90    
  17   -99.90      -99.90      -99.90      -99.90      -99.90      -99.90      -99.90      -99.90      -99.90      -99.90    
       -99.90      -99.90      -99.90      -99.90      -99.90      -99.90      -99.90      -99.90      -99.90      -99.90    
       -99.90      -99.90      -99.90      -99.90      -99.90      -99.90      -99.90      -99.90      -99.90      -99.90    
       -99.90      -99.90      -99.90      -99.90      -99.90      -99.90      -99.90      -99.90      -99.90      -99.90    
  18   -99.90      -99.90      -99.90      -99.90      -99.90      -99.90      -99.90      -99.90      -99.90      -99.90    
       -99.90      -99.90      -99.90      -99.90      -99.90      -99.90      -99.90      -99.90      -99.90      -99.90    
       -99.90      -99.90      -99.90      -99.90      -99.90      -99.90      -99.90      -99.90      -99.90      -99.90    
       -99.90      -99.90      -99.90      -99.90      -99.90      -99.90      -99.90      -99.90      -99.90      -99.90    
  19   -99.90      -99.90      -99.90      -99.90      -99.90      -99.90      -99.90      -99.90      -99.90      -99.90    
       -99.90      -99.90      -99.90      -99.90      -99.90      -99.90      -99.90      -99.90      -99.90      -99.90    
       -99.90      -99.90      -99.90      -99.90      -99.90      -99.90      -99.90      -99.90      -99.90      -99.90    
       -99.90      -99.90      -99.90      -99.90      -99.90      -99.90      -99.90      -99.90      -99.90      -99.90    
  20   -99.90      -99.90      -99.90      -99.90      -99.90      -99.90      -99.90      -99.90      -99.90      -99.90    
       -99.90      -99.90      -99.90      -99.90      -99.90      -99.90      -99.90      -99.90      -99.90      -99.90    
       -99.90      -99.90      -99.90      -99.90      -99.90      -99.90      -99.90      -99.90      -99.90      -99.90    
       -99.90      -99.90      -99.90      -99.90      -99.90      -99.90      -99.90      -99.90      -99.90      -99.90    
  21   -99.90      -99.90      -99.90      -99.90      -99.90      -99.90      -99.90      -99.90      -99.90      -99.90    
       -99.90      -99.90      -99.90      -99.90      -99.90      -99.90      -99.90      -99.90      -99.90      -99.90    
       -99.90      -99.90      -99.90      -99.90      -99.90      -99.90      -99.90      -99.90      -99.90      -99.90    
       -99.90      -99.90      -99.90      -99.90      -99.90      -99.90      -99.90      -99.90      -99.90      -99.90    
  22   -99.90      -99.90      -99.90      -99.90      -99.90      -99.90      -99.90      -99.90      -99.90      -99.90    
       -99.90      -99.90      -99.90      -99.90      -99.90      -99.90      -99.90      -99.90      -99.90      -99.90    
       -99.90      -99.90      -99.90      -99.90      -99.90      -99.90      -99.90      -99.90      -99.90      -99.90    
       -99.90      -99.90      -99.90      -99.90      -99.90      -99.90      -99.90      -99.90      -99.90      -99.90    
  23   -99.90      -99.90      -99.90      -99.90      -99.90      -99.90      -99.90      -99.90      -99.90      -99.90    
       -99.90      -99.90      -99.90      -99.90      -99.90      -99.90      -99.90      -99.90      -99.90      -99.90    
       -99.90      -99.90      -99.90      -99.90      -99.90      -99.90      -99.90      -99.90      -99.90      -99.90    
       -99.90      -99.90      -99.90      -99.90      -99.90      -99.90      -99.90      -99.90      -99.90      -99.90    
  24   -99.90      -99.90      -99.90      -99.90      -99.90      -99.90      -99.90      -99.90      -99.90      -99.90    
       -99.90      -99.90      -99.90      -99.90      -99.90      -99.90      -99.90      -99.90      -99.90      -99.90    
       -99.90      -99.90      -99.90      -99.90      -99.90      -99.90      -99.90      -99.90      -99.90      -99.90    
       -99.90      -99.90      -99.90      -99.90      -99.90      -99.90      -99.90      -99.90      -99.90      -99.90    
  25   -99.90      -99.90      -99.90      -99.90      -99.90      -99.90      -99.90      -99.90      -99.90      -99.90    
       -99.90      -99.90      -99.90      -99.90      -99.90      -99.90      -99.90      -99.90      -99.90      -99.90    
       -99.90      -99.90      -99.90      -99.90      -99.90      -99.90      -99.90      -99.90      -99.90      -99.90    
       -99.90      -99.90      -99.90      -99.90      -99.90      -99.90      -99.90      -99.90      -99.90      -99.90    
  26   -99.90      -99.90      -99.90      -99.90      -99.90      -99.90      -99.90      -99.90      -99.90      -99.90    
       -99.90      -99.90      -99.90      -99.90      -99.90      -99.90      -99.90      -99.90      -99.90      -99.90    
       -99.90      -99.90      -99.90      -99.90      -99.90      -99.90      -99.90      -99.90      -99.90      -99.90    
       -99.90      -99.90      -99.90      -99.90      -99.90      -99.90      -99.90      -99.90      -99.90      -99.90    
  27   -99.90      -99.90      -99.90      -99.90      -99.90      -99.90      -99.90      -99.90      -99.90      -99.90    
       -99.90      -99.90      -99.90      -99.90      -99.90      -99.90      -99.90      -99.90      -99.90      -99.90    
       -99.90      -99.90      -99.90      -99.90      -99.90      -99.90      -99.90      -99.90      -99.90      -99.90    
       -99.90      -99.90      -99.90      -99.90      -99.90      -99.90      -99.90      -99.90      -99.90      -99.90    
  28   -99.90      -99.90      -99.90      -99.90      -99.90      -99.90      -99.90      -99.90      -99.90      -99.90    
       -99.90      -99.90      -99.90      -99.90      -99.90      -99.90      -99.90      -99.90      -99.90      -99.90    
       -99.90      -99.90      -99.90      -99.90      -99.90      -99.90      -99.90      -99.90      -99.90      -99.90    
       -99.90      -99.90      -99.90      -99.90      -99.90      -99.90      -99.90      -99.90      -99.90      -99.90    
  29   -99.90      -99.90      -99.90      -99.90      -99.90      -99.90      -99.90      -99.90      -99.90      -99.90    
       -99.90      -99.90      -99.90      -99.90      -99.90      -99.90      -99.90      -99.90      -99.90      -99.90    
       -99.90      -99.90      -99.90      -99.90      -99.90      -99.90      -99.90      -99.90      -99.90      -99.90    
       -99.90      -99.90      -99.90      -99.90      -99.90      -99.90      -99.90      -99.90      -99.90      -99.90    
  30   -99.90      -99.90      -99.90      -99.90      -99.90      -99.90      -99.90      -99.90      -99.90      -99.90    
       -99.90      -99.90      -99.90      -99.90      -99.90      -99.90      -99.90      -99.90      -99.90      -99.90    
       -99.90      -99.90      -99.90      -99.90      -99.90      -99.90      -99.90      -99.90      -99.90      -99.90    
       -99.90      -99.90      -99.90      -99.90      -99.90      -99.90      -99.90      -99.90      -99.90      -99.90    
  31   -99.90      -99.90      -99.90      -99.90      -99.90      -99.90      -99.90      -99.90      -99.90      -99.90    
       -99.90      -99.90      -99.90      -99.90      -99.90      -99.90      -99.90      -99.90      -99.90      -99.90    
       -99.90      -99.90      -99.90      -99.90      -99.90      -99.90      -99.90      -99.90      -99.90      -99.90    
       -99.90      -99.90      -99.90      -99.90      -99.90      -99.90      -99.90      -99.90      -99.90      -99.90    
  32   -99.90      -99.90      -99.90      -99.90      -99.90      -99.90      -99.90      -99.90      -99.90      -99.90    
       -99.90      -99.90      -99.90      -99.90      -99.90      -99.90      -99.90      -99.90      -99.90      -99.90    
       -99.90      -99.90      -99.90      -99.90      -99.90      -99.90      -99.90      -99.90      -99.90      -99.90    
       -99.90      -99.90      -99.90      -99.90      -99.90      -99.90      -99.90      -99.90      -99.90      -99.90    
  33   -99.90      -99.90      -99.90      -99.90      -99.90      -99.90      -99.90      -99.90      -99.90      -99.90    
       -99.90      -99.90      -99.90      -99.90      -99.90      -99.90      -99.90      -99.90      -99.90      -99.90    
       -99.90      -99.90      -99.90      -99.90      -99.90      -99.90      -99.90      -99.90      -99.90      -99.90    
       -99.90      -99.90      -99.90      -99.90      -99.90      -99.90      -99.90      -99.90      -99.90      -99.90    
  34   -99.90      -99.90      -99.90      -99.90      -99.90      -99.90      -99.90      -99.90      -99.90      -99.90    
       -99.90      -99.90      -99.90      -99.90      -99.90      -99.90      -99.90      -99.90      -99.90      -99.90    
       -99.90      -99.90      -99.90      -99.90      -99.90      -99.90      -99.90      -99.90      -99.90      -99.90    
       -99.90      -99.90      -99.90      -99.90      -99.90      -99.90      -99.90      -99.90      -99.90      -99.90    
  35   -99.90      -99.90      -99.90      -99.90      -99.90      -99.90      -99.90      -99.90      -99.90      -99.90    
       -99.90      -99.90      -99.90      -99.90      -99.90      -99.90      -99.90      -99.90      -99.90      -99.90    
       -99.90      -99.90      -99.90      -99.90      -99.90      -99.90      -99.90      -99.90      -99.90      -99.90    
       -99.90      -99.90      -99.90      -99.90      -99.90      -99.90      -99.90      -99.90      -99.90      -99.90    
  36   -99.90      -99.90      -99.90      -99.90      -99.90      -99.90      -99.90      -99.90      -99.90      -99.90    
       -99.90      -99.90      -99.90      -99.90      -99.90      -99.90      -99.90      -99.90      -99.90      -99.90    
       -99.90      -99.90      -99.90      -99.90      -99.90      -99.90      -99.90      -99.90      -99.90      -99.90    
       -99.90      -99.90      -99.90      -99.90      -99.90      -99.90      -99.90      -99.90      -99.90      -99.90    
  37   -99.90      -99.90      -99.90      -99.90      -99.90      -99.90      -99.90      -99.90      -99.90      -99.90    
       -99.90      -99.90      -99.90      -99.90      -99.90      -99.90      -99.90      -99.90      -99.90      -99.90    
       -99.90      -99.90      -99.90      -99.90      -99.90      -99.90      -99.90      -99.90      -99.90      -99.90    
       -99.90      -99.90      -99.90      -99.90      -99.90      -99.90      -99.90      -99.90      -99.90      -99.90    
  38   -99.90      -99.90      -99.90      -99.90      -99.90      -99.90      -99.90      -99.90      -99.90      -99.90    
       -99.90      -99.90      -99.90      -99.90      -99.90      -99.90      -99.90      -99.90      -99.90      -99.90    
       -99.90      -99.90      -99.90      -99.90      -99.90      -99.90      -99.90      -99.90      -99.90      -99.90    
       -99.90      -99.90      -99.90      -99.90      -99.90      -99.90      -99.90      -99.90      -99.90      -99.90    
  39   -99.90      -99.90      -99.90      -99.90      -99.90      -99.90      -99.90      -99.90      -99.90      -99.90    
       -99.90      -99.90      -99.90      -99.90      -99.90      -99.90      -99.90      -99.90      -99.90      -99.90    
       -99.90      -99.90      -99.90      -99.90      -99.90      -99.90      -99.90      -99.90      -99.90      -99.90    
       -99.90      -99.90      -99.90      -99.90      -99.90      -99.90      -99.90      -99.90      -99.90      -99.90    
  40   -99.90      -99.90      -99.90      -99.90      -99.90      -99.90      -99.90      -99.90      -99.90      -99.90    
       -99.90      -99.90      -99.90      -99.90      -99.90      -99.90      -99.90      -99.90      -99.90      -99.90    
       -99.90      -99.90      -99.90      -99.90      -99.90      -99.90      -99.90      -99.90      -99.90      -99.90    
       -99.90      -99.90      -99.90      -99.90      -99.90      -99.90      -99.90      -99.90      -99.90      -99.90    
1
              HEAD IN LAYER   4 AT END OF TIME STEP   2 IN STRESS PERIOD    2
  ---------------------------------------------------------------------------

            1           2           3           4           5           6           7           8           9          10
           11          12          13          14          15          16          17          18          19          20
           21          22          23          24          25          26          27          28          29          30
           31          32          33          34          35          36          37          38          39          40
 ........................................................................................................................
   1   -99.90      -99.90      -99.90      -99.90      -99.90      -99.90      -99.90      -99.90      -99.90      -99.90    
       -99.90      -99.90      -99.90      -99.90      -99.90      -99.90      -99.90      -99.90      -99.90      -99.90    
       -99.90      -99.90      -99.90      -99.90      -99.90      -99.90      -99.90      -99.90      -99.90      -99.90    
       -99.90      -99.90      -99.90      -99.90      -99.90      -99.90      -99.90      -99.90      -99.90      -99.90    
   2   -99.90      -99.90      -99.90      -99.90      -99.90      -99.90      -99.90      -99.90      -99.90      -99.90    
       -99.90      -99.90      -99.90      -99.90      -99.90      -99.90      -99.90      -99.90      -99.90      -99.90    
       -99.90      -99.90      -99.90      -99.90      -99.90      -99.90      -99.90      -99.90      -99.90      -99.90    
       -99.90      -99.90      -99.90      -99.90      -99.90      -99.90      -99.90      -99.90      -99.90      -99.90    
   3   -99.90      -99.90      -99.90      -99.90      -99.90      -99.90      -99.90      -99.90      -99.90      -99.90    
       -99.90      -99.90      -99.90      -99.90      -99.90      -99.90      -99.90      -99.90      -99.90      -99.90    
       -99.90      -99.90      -99.90      -99.90      -99.90      -99.90      -99.90      -99.90      -99.90      -99.90    
       -99.90      -99.90      -99.90      -99.90      -99.90      -99.90      -99.90      -99.90      -99.90      -99.90    
   4   -99.90      -99.90      -99.90      -99.90      -99.90      -99.90      -99.90      -99.90      -99.90      -99.90    
       -99.90      -99.90      -99.90      -99.90      -99.90      -99.90      -99.90      -99.90      -99.90      -99.90    
       -99.90      -99.90      -99.90      -99.90      -99.90      -99.90      -99.90      -99.90      -99.90      -99.90    
       -99.90      -99.90      -99.90      -99.90      -99.90      -99.90      -99.90      -99.90      -99.90      -99.90    
   5   -99.90      -99.90      -99.90      -99.90      -99.90      -99.90      -99.90      -99.90      -99.90      -99.90    
       -99.90      -99.90      -99.90      -99.90      -99.90      -99.90      -99.90      -99.90      -99.90      -99.90    
       -99.90      -99.90      -99.90      -99.90      -99.90      -99.90      -99.90      -99.90      -99.90      -99.90    
       -99.90      -99.90      -99.90      -99.90      -99.90      -99.90      -99.90      -99.90      -99.90      -99.90    
   6   -99.90      -99.90      -99.90      -99.90      -99.90      -99.90      -99.90      -99.90      -99.90      -99.90    
       -99.90      -99.90      -99.90      -99.90      -99.90      -99.90      -99.90      -99.90      -99.90      -99.90    
       -99.90      -99.90      -99.90      -99.90      -99.90      -99.90      -99.90      -99.90      -99.90      -99.90    
       -99.90      -99.90      -99.90      -99.90      -99.90      -99.90      -99.90      -99.90      -99.90      -99.90    
   7   -99.90      -99.90      -99.90      -99.90      -99.90      -99.90      -99.90      -99.90      -99.90      -99.90    
       -99.90      -99.90      -99.90      -99.90      -99.90      -99.90      -99.90      -99.90      -99.90      -99.90    
       -99.90      -99.90      -99.90      -99.90      -99.90      -99.90      -99.90      -99.90      -99.90      -99.90    
       -99.90      -99.90      -99.90      -99.90      -99.90      -99.90      -99.90      -99.90      -99.90      -99.90    
   8   -99.90      -99.90      -99.90      -99.90      -99.90      -99.90      -99.90      -99.90      -99.90      -99.90    
       -99.90      -99.90      -99.90      -99.90      -99.90      -99.90      -99.90      -99.90      -99.90      -99.90    
       -99.90      -99.90      -99.90      -99.90      -99.90      -99.90      -99.90      -99.90      -99.90      -99.90    
       -99.90      -99.90      -99.90      -99.90      -99.90      -99.90      -99.90      -99.90      -99.90      -99.90    
   9   -99.90      -99.90      -99.90      -99.90      -99.90      -99.90      -99.90      -99.90      -99.90      -99.90    
       -99.90      -99.90      -99.90      -99.90      -99.90      -99.90      -99.90      -99.90      -99.90      -99.90    
       -99.90      -99.90      -99.90      -99.90      -99.90      -99.90      -99.90      -99.90      -99.90      -99.90    
       -99.90      -99.90      -99.90      -99.90      -99.90      -99.90      -99.90      -99.90      -99.90      -99.90    
  10   -99.90      -99.90      -99.90      -99.90      -99.90      -99.90      -99.90      -99.90      -99.90      -99.90    
       -99.90      -99.90      -99.90      -99.90      -99.90      -99.90      -99.90      -99.90      -99.90      -99.90    
       -99.90      -99.90      -99.90      -99.90      -99.90      -99.90      -99.90      -99.90      -99.90      -99.90    
       -99.90      -99.90      -99.90      -99.90      -99.90      -99.90      -99.90      -99.90      -99.90      -99.90    
  11   -99.90      -99.90      -99.90      -99.90      -99.90      -99.90      -99.90      -99.90      -99.90      -99.90    
       -99.90      -99.90      -99.90      -99.90      -99.90      -99.90      -99.90      -99.90      -99.90      -99.90    
       -99.90      -99.90      -99.90      -99.90      -99.90      -99.90      -99.90      -99.90      -99.90      -99.90    
       -99.90      -99.90      -99.90      -99.90      -99.90      -99.90      -99.90      -99.90      -99.90      -99.90    
  12   -99.90      -99.90      -99.90      -99.90      -99.90      -99.90      -99.90      -99.90      -99.90      -99.90    
       -99.90      -99.90      -99.90      -99.90      -99.90      -99.90      -99.90      -99.90      -99.90      -99.90    
       -99.90      -99.90      -99.90      -99.90      -99.90      -99.90      -99.90      -99.90      -99.90      -99.90    
       -99.90      -99.90      -99.90      -99.90      -99.90      -99.90      -99.90      -99.90      -99.90      -99.90    
  13   -99.90      -99.90      -99.90      -99.90      -99.90      -99.90      -99.90      -99.90      -99.90      -99.90    
       -99.90      -99.90      -99.90      -99.90      -99.90      -99.90      -99.90      -99.90      -99.90      -99.90    
       -99.90      -99.90      -99.90      -99.90      -99.90      -99.90      -99.90      -99.90      -99.90      -99.90    
       -99.90      -99.90      -99.90      -99.90      -99.90      -99.90      -99.90      -99.90      -99.90      -99.90    
  14   -99.90      -99.90      -99.90      -99.90      -99.90      -99.90      -99.90      -99.90      -99.90      -99.90    
       -99.90      -99.90      -99.90      -99.90      -99.90      -99.90      -99.90      -99.90      -99.90      -99.90    
       -99.90      -99.90      -99.90      -99.90      -99.90      -99.90      -99.90      -99.90      -99.90      -99.90    
       -99.90      -99.90      -99.90      -99.90      -99.90      -99.90      -99.90      -99.90      -99.90      -99.90    
  15   -99.90      -99.90      -99.90      -99.90      -99.90      -99.90      -99.90      -99.90      -99.90      -99.90    
       -99.90      -99.90      -99.90      -99.90      -99.90      -99.90      -99.90      -99.90      -99.90      -99.90    
       -99.90      -99.90      -99.90      -99.90      -99.90      -99.90      -99.90      -99.90      -99.90      -99.90    
       -99.90      -99.90      -99.90      -99.90      -99.90      -99.90      -99.90      -99.90      -99.90      -99.90    
  16   -99.90      -99.90      -99.90      -99.90      -99.90      -99.90      -99.90      -99.90      -99.90      -99.90    
       -99.90      -99.90      -99.90      -99.90      -99.90      -99.90      -99.90      -99.90      -99.90      -99.90    
       -99.90      -99.90      -99.90      -99.90      -99.90      -99.90      -99.90      -99.90      -99.90      -99.90    
       -99.90      -99.90      -99.90      -99.90      -99.90      -99.90      -99.90      -99.90      -99.90      -99.90    
  17   -99.90      -99.90      -99.90      -99.90      -99.90      -99.90      -99.90      -99.90      -99.90      -99.90    
       -99.90      -99.90      -99.90      -99.90      -99.90      -99.90      -99.90      -99.90      -99.90      -99.90    
       -99.90      -99.90      -99.90      -99.90      -99.90      -99.90      -99.90      -99.90      -99.90      -99.90    
       -99.90      -99.90      -99.90      -99.90      -99.90      -99.90      -99.90      -99.90      -99.90      -99.90    
  18   -99.90      -99.90      -99.90      -99.90      -99.90      -99.90      -99.90      -99.90      -99.90      -99.90    
       -99.90      -99.90      -99.90      -99.90      -99.90      -99.90      -99.90      -99.90      -99.90      -99.90    
       -99.90      -99.90      -99.90      -99.90      -99.90      -99.90      -99.90      -99.90      -99.90      -99.90    
       -99.90      -99.90      -99.90      -99.90      -99.90      -99.90      -99.90      -99.90      -99.90      -99.90    
  19   -99.90      -99.90      -99.90      -99.90      -99.90      -99.90      -99.90      -99.90      -99.90      -99.90    
       -99.90      -99.90      -99.90      -99.90      -99.90      -99.90      -99.90      -99.90      -99.90      -99.90    
       -99.90      -99.90      -99.90      -99.90      -99.90      -99.90      -99.90      -99.90      -99.90      -99.90    
       -99.90      -99.90      -99.90      -99.90      -99.90      -99.90      -99.90      -99.90      -99.90      -99.90    
  20   -99.90      -99.90      -99.90      -99.90      -99.90      -99.90      -99.90      -99.90      -99.90      -99.90    
       -99.90      -99.90      -99.90      -99.90      -99.90      -99.90      -99.90      -99.90      -99.90      -99.90    
       -99.90      -99.90      -99.90      -99.90      -99.90      -99.90      -99.90      -99.90      -99.90      -99.90    
       -99.90      -99.90      -99.90      -99.90      -99.90      -99.90      -99.90      -99.90      -99.90      -99.90    
  21   -99.90      -99.90      -99.90      -99.90      -99.90      -99.90      -99.90      -99.90      -99.90      -99.90    
       -99.90      -99.90      -99.90      -99.90      -99.90      -99.90      -99.90      -99.90      -99.90      -99.90    
       -99.90      -99.90      -99.90      -99.90      -99.90      -99.90      -99.90      -99.90      -99.90      -99.90    
       -99.90      -99.90      -99.90      -99.90      -99.90      -99.90      -99.90      -99.90      -99.90      -99.90    
  22   -99.90      -99.90      -99.90      -99.90      -99.90      -99.90      -99.90      -99.90      -99.90      -99.90    
       -99.90      -99.90      -99.90      -99.90      -99.90      -99.90      -99.90      -99.90      -99.90      -99.90    
       -99.90      -99.90      -99.90      -99.90      -99.90      -99.90      -99.90      -99.90      -99.90      -99.90    
       -99.90      -99.90      -99.90      -99.90      -99.90      -99.90      -99.90      -99.90      -99.90      -99.90    
  23   -99.90      -99.90      -99.90      -99.90      -99.90      -99.90      -99.90      -99.90      -99.90      -99.90    
       -99.90      -99.90      -99.90      -99.90      -99.90      -99.90      -99.90      -99.90      -99.90      -99.90    
       -99.90      -99.90      -99.90      -99.90      -99.90      -99.90      -99.90      -99.90      -99.90      -99.90    
       -99.90      -99.90      -99.90      -99.90      -99.90      -99.90      -99.90      -99.90      -99.90      -99.90    
  24   -99.90      -99.90      -99.90      -99.90      -99.90      -99.90      -99.90      -99.90      -99.90      -99.90    
       -99.90      -99.90      -99.90      -99.90      -99.90      -99.90      -99.90      -99.90      -99.90      -99.90    
       -99.90      -99.90      -99.90      -99.90      -99.90      -99.90      -99.90      -99.90      -99.90      -99.90    
       -99.90      -99.90      -99.90      -99.90      -99.90      -99.90      -99.90      -99.90      -99.90      -99.90    
  25   -99.90      -99.90      -99.90      -99.90      -99.90      -99.90      -99.90      -99.90      -99.90      -99.90    
       -99.90      -99.90      -99.90      -99.90      -99.90      -99.90      -99.90      -99.90      -99.90      -99.90    
       -99.90      -99.90      -99.90      -99.90      -99.90      -99.90      -99.90      -99.90      -99.90      -99.90    
       -99.90      -99.90      -99.90      -99.90      -99.90      -99.90      -99.90      -99.90      -99.90      -99.90    
  26   -99.90      -99.90      -99.90      -99.90      -99.90      -99.90      -99.90      -99.90      -99.90      -99.90    
       -99.90      -99.90      -99.90      -99.90      -99.90      -99.90      -99.90      -99.90      -99.90      -99.90    
       -99.90      -99.90      -99.90      -99.90      -99.90      -99.90      -99.90      -99.90      -99.90      -99.90    
       -99.90      -99.90      -99.90      -99.90      -99.90      -99.90      -99.90      -99.90      -99.90      -99.90    
  27   -99.90      -99.90      -99.90      -99.90      -99.90      -99.90      -99.90      -99.90      -99.90      -99.90    
       -99.90      -99.90      -99.90      -99.90      -99.90      -99.90      -99.90      -99.90      -99.90      -99.90    
       -99.90      -99.90      -99.90      -99.90      -99.90      -99.90      -99.90      -99.90      -99.90      -99.90    
       -99.90      -99.90      -99.90      -99.90      -99.90      -99.90      -99.90      -99.90      -99.90      -99.90    
  28   -99.90      -99.90      -99.90      -99.90      -99.90      -99.90      -99.90      -99.90      -99.90      -99.90    
       -99.90      -99.90      -99.90      -99.90      -99.90      -99.90      -99.90      -99.90      -99.90      -99.90    
       -99.90      -99.90      -99.90      -99.90      -99.90      -99.90      -99.90      -99.90      -99.90      -99.90    
       -99.90      -99.90      -99.90      -99.90      -99.90      -99.90      -99.90      -99.90      -99.90      -99.90    
  29   -99.90      -99.90      -99.90      -99.90      -99.90      -99.90      -99.90      -99.90      -99.90      -99.90    
       -99.90      -99.90      -99.90      -99.90      -99.90      -99.90      -99.90      -99.90      -99.90      -99.90    
       -99.90      -99.90      -99.90      -99.90      -99.90      -99.90      -99.90      -99.90      -99.90      -99.90    
       -99.90      -99.90      -99.90      -99.90      -99.90      -99.90      -99.90      -99.90      -99.90      -99.90    
  30   -99.90      -99.90      -99.90      -99.90      -99.90      -99.90      -99.90      -99.90      -99.90      -99.90    
       -99.90      -99.90      -99.90      -99.90      -99.90      -99.90      -99.90      -99.90      -99.90      -99.90    
       -99.90      -99.90      -99.90      -99.90      -99.90      -99.90      -99.90      -99.90      -99.90      -99.90    
       -99.90      -99.90      -99.90      -99.90      -99.90      -99.90      -99.90      -99.90      -99.90      -99.90    
  31   -99.90      -99.90      -99.90      -99.90      -99.90      -99.90      -99.90      -99.90      -99.90      -99.90    
       -99.90      -99.90      -99.90      -99.90      -99.90      -99.90      -99.90      -99.90      -99.90      -99.90    
       -99.90      -99.90      -99.90      -99.90      -99.90      -99.90      -99.90      -99.90      -99.90      -99.90    
       -99.90      -99.90      -99.90      -99.90      -99.90      -99.90      -99.90      -99.90      -99.90      -99.90    
  32   -99.90      -99.90      -99.90      -99.90      -99.90      -99.90      -99.90      -99.90      -99.90      -99.90    
       -99.90      -99.90      -99.90      -99.90      -99.90      -99.90      -99.90      -99.90      -99.90      -99.90    
       -99.90      -99.90      -99.90      -99.90      -99.90      -99.90      -99.90      -99.90      -99.90      -99.90    
       -99.90      -99.90      -99.90      -99.90      -99.90      -99.90      -99.90      -99.90      -99.90      -99.90    
  33   -99.90      -99.90      -99.90      -99.90      -99.90      -99.90      -99.90      -99.90      -99.90      -99.90    
       -99.90      -99.90      -99.90      -99.90      -99.90      -99.90      -99.90      -99.90      -99.90      -99.90    
       -99.90      -99.90      -99.90      -99.90      -99.90      -99.90      -99.90      -99.90      -99.90      -99.90    
       -99.90      -99.90      -99.90      -99.90      -99.90      -99.90      -99.90      -99.90      -99.90      -99.90    
  34   -99.90      -99.90      -99.90      -99.90      -99.90      -99.90      -99.90      -99.90      -99.90      -99.90    
       -99.90      -99.90      -99.90      -99.90      -99.90      -99.90      -99.90      -99.90      -99.90      -99.90    
       -99.90      -99.90      -99.90      -99.90      -99.90      -99.90      -99.90      -99.90      -99.90      -99.90    
       -99.90      -99.90      -99.90      -99.90      -99.90      -99.90      -99.90      -99.90      -99.90      -99.90    
  35   -99.90      -99.90      -99.90      -99.90      -99.90      -99.90      -99.90      -99.90      -99.90      -99.90    
       -99.90      -99.90      -99.90      -99.90      -99.90      -99.90      -99.90      -99.90      -99.90      -99.90    
       -99.90      -99.90      -99.90      -99.90      -99.90      -99.90      -99.90      -99.90      -99.90      -99.90    
       -99.90      -99.90      -99.90      -99.90      -99.90      -99.90      -99.90      -99.90      -99.90      -99.90    
  36   -99.90      -99.90      -99.90      -99.90      -99.90      -99.90      -99.90      -99.90      -99.90      -99.90    
       -99.90      -99.90      -99.90      -99.90      -99.90      -99.90      -99.90      -99.90      -99.90      -99.90    
       -99.90      -99.90      -99.90      -99.90      -99.90      -99.90      -99.90      -99.90      -99.90      -99.90    
       -99.90      -99.90      -99.90      -99.90      -99.90      -99.90      -99.90      -99.90      -99.90      -99.90    
  37   -99.90      -99.90      -99.90      -99.90      -99.90      -99.90      -99.90      -99.90      -99.90      -99.90    
       -99.90      -99.90      -99.90      -99.90      -99.90      -99.90      -99.90      -99.90      -99.90      -99.90    
       -99.90      -99.90      -99.90      -99.90      -99.90      -99.90      -99.90      -99.90      -99.90      -99.90    
       -99.90      -99.90      -99.90      -99.90      -99.90      -99.90      -99.90      -99.90      -99.90      -99.90    
  38   -99.90      -99.90      -99.90      -99.90      -99.90      -99.90      -99.90      -99.90      -99.90      -99.90    
       -99.90      -99.90      -99.90      -99.90      -99.90      -99.90      -99.90      -99.90      -99.90      -99.90    
       -99.90      -99.90      -99.90      -99.90      -99.90      -99.90      -99.90      -99.90      -99.90      -99.90    
       -99.90      -99.90      -99.90      -99.90      -99.90      -99.90      -99.90      -99.90      -99.90      -99.90    
  39   -99.90      -99.90      -99.90      -99.90      -99.90      -99.90      -99.90      -99.90      -99.90      -99.90    
       -99.90      -99.90      -99.90      -99.90      -99.90      -99.90      -99.90      -99.90      -99.90      -99.90    
       -99.90      -99.90      -99.90      -99.90      -99.90      -99.90      -99.90      -99.90      -99.90      -99.90    
       -99.90      -99.90      -99.90      -99.90      -99.90      -99.90      -99.90      -99.90      -99.90      -99.90    
  40   -99.90      -99.90      -99.90      -99.90      -99.90      -99.90      -99.90      -99.90      -99.90      -99.90    
       -99.90      -99.90      -99.90      -99.90      -99.90      -99.90      -99.90      -99.90      -99.90      -99.90    
       -99.90      -99.90      -99.90      -99.90      -99.90      -99.90      -99.90      -99.90      -99.90      -99.90    
       -99.90      -99.90      -99.90      -99.90      -99.90      -99.90      -99.90      -99.90      -99.90      -99.90    
1
              HEAD IN LAYER   5 AT END OF TIME STEP   2 IN STRESS PERIOD    2
  ---------------------------------------------------------------------------

            1           2           3           4           5           6           7           8           9          10
           11          12          13          14          15          16          17          18          19          20
           21          22          23          24          25          26          27          28          29          30
           31          32          33          34          35          36          37          38          39          40
 ........................................................................................................................
   1    48.76       47.41      -99.90      -99.90      -99.90      -99.90      -99.90      -99.90      -99.90      -99.90    
       -99.90      -99.90      -99.90      -99.90      -99.90      -99.90      -99.90      -99.90      -99.90      -99.90    
       -99.90      -99.90      -99.90      -99.90      -99.90      -99.90      -99.90      -99.90      -99.90      -99.90    
       -99.90      -99.90      -99.90      -99.90      -99.90      -99.90      -99.90      -99.90      -99.90      -99.90    
   2    47.41       46.15      -99.90      -99.90      -99.90      -99.90      -99.90      -99.90      -99.90      -99.90    
       -99.90      -99.90      -99.90      -99.90      -99.90      -99.90      -99.90      -99.90      -99.90      -99.90    
       -99.90      -99.90      -99.90      -99.90      -99.90      -99.90      -99.90      -99.90      -99.90      -99.90    
       -99.90      -99.90      -99.90      -99.90      -99.90      -99.90      -99.90      -99.90      -99.90      -99.90    
   3   -99.90      -99.90      -99.90      -99.90      -99.90      -99.90      -99.90      -99.90      -99.90      -99.90    
       -99.90      -99.90      -99.90      -99.90      -99.90      -99.90      -99.90      -99.90      -99.90      -99.90    
       -99.90      -99.90      -99.90      -99.90      -99.90      -99.90      -99.90      -99.90      -99.90      -99.90    
       -99.90      -99.90      -99.90      -99.90      -99.90      -99.90      -99.90      -99.90      -99.90      -99.90    
   4   -99.90      -99.90      -99.90      -99.90      -99.90      -99.90      -99.90      -99.90      -99.90      -99.90    
       -99.90      -99.90      -99.90      -99.90      -99.90      -99.90      -99.90      -99.90      -99.90      -99.90    
       -99.90      -99.90      -99.90      -99.90      -99.90      -99.90      -99.90      -99.90      -99.90      -99.90    
       -99.90      -99.90      -99.90      -99.90      -99.90      -99.90      -99.90      -99.90      -99.90      -99.90    
   5   -99.90      -99.90      -99.90      -99.90      -99.90      -99.90      -99.90      -99.90      -99.90      -99.90    
       -99.90      -99.90      -99.90      -99.90      -99.90      -99.90      -99.90      -99.90      -99.90      -99.90    
       -99.90      -99.90      -99.90      -99.90      -99.90      -99.90      -99.90      -99.90      -99.90      -99.90    
       -99.90      -99.90      -99.90      -99.90      -99.90      -99.90      -99.90      -99.90      -99.90      -99.90    
   6   -99.90      -99.90      -99.90      -99.90      -99.90      -99.90      -99.90      -99.90      -99.90      -99.90    
       -99.90      -99.90      -99.90      -99.90      -99.90      -99.90      -99.90      -99.90      -99.90      -99.90    
       -99.90      -99.90      -99.90      -99.90      -99.90      -99.90      -99.90      -99.90      -99.90      -99.90    
       -99.90      -99.90      -99.90      -99.90      -99.90      -99.90      -99.90      -99.90      -99.90      -99.90    
   7   -99.90      -99.90      -99.90      -99.90      -99.90      -99.90      -99.90      -99.90      -99.90      -99.90    
       -99.90      -99.90      -99.90      -99.90      -99.90      -99.90      -99.90      -99.90      -99.90      -99.90    
       -99.90      -99.90      -99.90      -99.90      -99.90      -99.90      -99.90      -99.90      -99.90      -99.90    
       -99.90      -99.90      -99.90      -99.90      -99.90      -99.90      -99.90      -99.90      -99.90      -99.90    
   8   -99.90      -99.90      -99.90      -99.90      -99.90      -99.90      -99.90      -99.90      -99.90      -99.90    
       -99.90      -99.90      -99.90      -99.90      -99.90      -99.90      -99.90      -99.90      -99.90      -99.90    
       -99.90      -99.90      -99.90      -99.90      -99.90      -99.90      -99.90      -99.90      -99.90      -99.90    
       -99.90      -99.90      -99.90      -99.90      -99.90      -99.90      -99.90      -99.90      -99.90      -99.90    
   9   -99.90      -99.90      -99.90      -99.90      -99.90      -99.90      -99.90      -99.90      -99.90      -99.90    
       -99.90      -99.90      -99.90      -99.90      -99.90      -99.90      -99.90      -99.90      -99.90      -99.90    
       -99.90      -99.90      -99.90      -99.90      -99.90      -99.90      -99.90      -99.90      -99.90      -99.90    
       -99.90      -99.90      -99.90      -99.90      -99.90      -99.90      -99.90      -99.90      -99.90      -99.90    
  10   -99.90      -99.90      -99.90      -99.90      -99.90      -99.90      -99.90      -99.90      -99.90      -99.90    
       -99.90      -99.90      -99.90      -99.90      -99.90      -99.90      -99.90      -99.90      -99.90      -99.90    
       -99.90      -99.90      -99.90      -99.90      -99.90      -99.90      -99.90      -99.90      -99.90      -99.90    
       -99.90      -99.90      -99.90      -99.90      -99.90      -99.90      -99.90      -99.90      -99.90      -99.90    
  11   -99.90      -99.90      -99.90      -99.90      -99.90      -99.90      -99.90      -99.90      -99.90      -99.90    
       -99.90      -99.90      -99.90      -99.90      -99.90      -99.90      -99.90      -99.90      -99.90      -99.90    
       -99.90      -99.90      -99.90      -99.90      -99.90      -99.90      -99.90      -99.90      -99.90      -99.90    
       -99.90      -99.90      -99.90      -99.90      -99.90      -99.90      -99.90      -99.90      -99.90      -99.90    
  12   -99.90      -99.90      -99.90      -99.90      -99.90      -99.90      -99.90      -99.90      -99.90      -99.90    
       -99.90      -99.90      -99.90      -99.90      -99.90      -99.90      -99.90      -99.90      -99.90      -99.90    
       -99.90      -99.90      -99.90      -99.90      -99.90      -99.90      -99.90      -99.90      -99.90      -99.90    
       -99.90      -99.90      -99.90      -99.90      -99.90      -99.90      -99.90      -99.90      -99.90      -99.90    
  13   -99.90      -99.90      -99.90      -99.90      -99.90      -99.90      -99.90      -99.90      -99.90      -99.90    
       -99.90      -99.90      -99.90      -99.90      -99.90      -99.90      -99.90      -99.90      -99.90      -99.90    
       -99.90      -99.90      -99.90      -99.90      -99.90      -99.90      -99.90      -99.90      -99.90      -99.90    
       -99.90      -99.90      -99.90      -99.90      -99.90      -99.90      -99.90      -99.90      -99.90      -99.90    
  14   -99.90      -99.90      -99.90      -99.90      -99.90      -99.90      -99.90      -99.90      -99.90      -99.90    
       -99.90      -99.90      -99.90      -99.90      -99.90      -99.90      -99.90      -99.90      -99.90      -99.90    
       -99.90      -99.90      -99.90      -99.90      -99.90      -99.90      -99.90      -99.90      -99.90      -99.90    
       -99.90      -99.90      -99.90      -99.90      -99.90      -99.90      -99.90      -99.90      -99.90      -99.90    
  15   -99.90      -99.90      -99.90      -99.90      -99.90      -99.90      -99.90      -99.90      -99.90      -99.90    
       -99.90      -99.90      -99.90      -99.90      -99.90      -99.90      -99.90      -99.90      -99.90      -99.90    
       -99.90      -99.90      -99.90      -99.90      -99.90      -99.90      -99.90      -99.90      -99.90      -99.90    
       -99.90      -99.90      -99.90      -99.90      -99.90      -99.90      -99.90      -99.90      -99.90      -99.90    
  16   -99.90      -99.90      -99.90      -99.90      -99.90      -99.90      -99.90      -99.90      -99.90      -99.90    
       -99.90      -99.90      -99.90      -99.90      -99.90      -99.90      -99.90      -99.90      -99.90      -99.90    
       -99.90      -99.90      -99.90      -99.90      -99.90      -99.90      -99.90      -99.90      -99.90      -99.90    
       -99.90      -99.90      -99.90      -99.90      -99.90      -99.90      -99.90      -99.90      -99.90      -99.90    
  17   -99.90      -99.90      -99.90      -99.90      -99.90      -99.90      -99.90      -99.90      -99.90      -99.90    
       -99.90      -99.90      -99.90      -99.90      -99.90      -99.90      -99.90      -99.90      -99.90      -99.90    
       -99.90      -99.90      -99.90      -99.90      -99.90      -99.90      -99.90      -99.90      -99.90      -99.90    
       -99.90      -99.90      -99.90      -99.90      -99.90      -99.90      -99.90      -99.90      -99.90      -99.90    
  18   -99.90      -99.90      -99.90      -99.90      -99.90      -99.90      -99.90      -99.90      -99.90      -99.90    
       -99.90      -99.90      -99.90      -99.90      -99.90      -99.90      -99.90      -99.90      -99.90      -99.90    
       -99.90      -99.90      -99.90      -99.90      -99.90      -99.90      -99.90      -99.90      -99.90      -99.90    
       -99.90      -99.90      -99.90      -99.90      -99.90      -99.90      -99.90      -99.90      -99.90      -99.90    
  19   -99.90      -99.90      -99.90      -99.90      -99.90      -99.90      -99.90      -99.90      -99.90      -99.90    
       -99.90      -99.90      -99.90      -99.90      -99.90      -99.90      -99.90      -99.90      -99.90      -99.90    
       -99.90      -99.90      -99.90      -99.90      -99.90      -99.90      -99.90      -99.90      -99.90      -99.90    
       -99.90      -99.90      -99.90      -99.90      -99.90      -99.90      -99.90      -99.90      -99.90      -99.90    
  20   -99.90      -99.90      -99.90      -99.90      -99.90      -99.90      -99.90      -99.90      -99.90      -99.90    
       -99.90      -99.90      -99.90      -99.90      -99.90      -99.90      -99.90      -99.90      -99.90      -99.90    
       -99.90      -99.90      -99.90      -99.90      -99.90      -99.90      -99.90      -99.90      -99.90      -99.90    
       -99.90      -99.90      -99.90      -99.90      -99.90      -99.90      -99.90      -99.90      -99.90      -99.90    
  21   -99.90      -99.90      -99.90      -99.90      -99.90      -99.90      -99.90      -99.90      -99.90      -99.90    
       -99.90      -99.90      -99.90      -99.90      -99.90      -99.90      -99.90      -99.90      -99.90      -99.90    
       -99.90      -99.90      -99.90      -99.90      -99.90      -99.90      -99.90      -99.90      -99.90      -99.90    
       -99.90      -99.90      -99.90      -99.90      -99.90      -99.90      -99.90      -99.90      -99.90      -99.90    
  22   -99.90      -99.90      -99.90      -99.90      -99.90      -99.90      -99.90      -99.90      -99.90      -99.90    
       -99.90      -99.90      -99.90      -99.90      -99.90      -99.90      -99.90      -99.90      -99.90      -99.90    
       -99.90      -99.90      -99.90      -99.90      -99.90      -99.90      -99.90      -99.90      -99.90      -99.90    
       -99.90      -99.90      -99.90      -99.90      -99.90      -99.90      -99.90      -99.90      -99.90      -99.90    
  23   -99.90      -99.90      -99.90      -99.90      -99.90      -99.90      -99.90      -99.90      -99.90      -99.90    
       -99.90      -99.90      -99.90      -99.90      -99.90      -99.90      -99.90      -99.90      -99.90      -99.90    
       -99.90      -99.90      -99.90      -99.90      -99.90      -99.90      -99.90      -99.90      -99.90      -99.90    
       -99.90      -99.90      -99.90      -99.90      -99.90      -99.90      -99.90      -99.90      -99.90      -99.90    
  24   -99.90      -99.90      -99.90      -99.90      -99.90      -99.90      -99.90      -99.90      -99.90      -99.90    
       -99.90      -99.90      -99.90      -99.90      -99.90      -99.90      -99.90      -99.90      -99.90      -99.90    
       -99.90      -99.90      -99.90      -99.90      -99.90      -99.90      -99.90      -99.90      -99.90      -99.90    
       -99.90      -99.90      -99.90      -99.90      -99.90      -99.90      -99.90      -99.90      -99.90      -99.90    
  25   -99.90      -99.90      -99.90      -99.90      -99.90      -99.90      -99.90      -99.90      -99.90      -99.90    
       -99.90      -99.90      -99.90      -99.90      -99.90      -99.90      -99.90      -99.90      -99.90      -99.90    
       -99.90      -99.90      -99.90      -99.90      -99.90      -99.90      -99.90      -99.90      -99.90      -99.90    
       -99.90      -99.90      -99.90      -99.90      -99.90      -99.90      -99.90      -99.90      -99.90      -99.90    
  26   -99.90      -99.90      -99.90      -99.90      -99.90      -99.90      -99.90      -99.90      -99.90      -99.90    
       -99.90      -99.90      -99.90      -99.90      -99.90      -99.90      -99.90      -99.90      -99.90      -99.90    
       -99.90      -99.90      -99.90      -99.90      -99.90      -99.90      -99.90      -99.90      -99.90      -99.90    
       -99.90      -99.90      -99.90      -99.90      -99.90      -99.90      -99.90      -99.90      -99.90      -99.90    
  27   -99.90      -99.90      -99.90      -99.90      -99.90      -99.90      -99.90      -99.90      -99.90      -99.90    
       -99.90      -99.90      -99.90      -99.90      -99.90      -99.90      -99.90      -99.90      -99.90      -99.90    
       -99.90      -99.90      -99.90      -99.90      -99.90      -99.90      -99.90      -99.90      -99.90      -99.90    
       -99.90      -99.90      -99.90      -99.90      -99.90      -99.90      -99.90      -99.90      -99.90      -99.90    
  28   -99.90      -99.90      -99.90      -99.90      -99.90      -99.90      -99.90      -99.90      -99.90      -99.90    
       -99.90      -99.90      -99.90      -99.90      -99.90      -99.90      -99.90      -99.90      -99.90      -99.90    
       -99.90      -99.90      -99.90      -99.90      -99.90      -99.90      -99.90      -99.90      -99.90      -99.90    
       -99.90      -99.90      -99.90      -99.90      -99.90      -99.90      -99.90      -99.90      -99.90      -99.90    
  29   -99.90      -99.90      -99.90      -99.90      -99.90      -99.90      -99.90      -99.90      -99.90      -99.90    
       -99.90      -99.90      -99.90      -99.90      -99.90      -99.90      -99.90      -99.90      -99.90      -99.90    
       -99.90      -99.90      -99.90      -99.90      -99.90      -99.90      -99.90      -99.90      -99.90      -99.90    
       -99.90      -99.90      -99.90      -99.90      -99.90      -99.90      -99.90      -99.90      -99.90      -99.90    
  30   -99.90      -99.90      -99.90      -99.90      -99.90      -99.90      -99.90      -99.90      -99.90      -99.90    
       -99.90      -99.90      -99.90      -99.90      -99.90      -99.90      -99.90      -99.90      -99.90      -99.90    
       -99.90      -99.90      -99.90      -99.90      -99.90      -99.90      -99.90      -99.90      -99.90      -99.90    
       -99.90      -99.90      -99.90      -99.90      -99.90      -99.90      -99.90      -99.90      -99.90      -99.90    
  31   -99.90      -99.90      -99.90      -99.90      -99.90      -99.90      -99.90      -99.90      -99.90      -99.90    
       -99.90      -99.90      -99.90      -99.90      -99.90      -99.90      -99.90      -99.90      -99.90      -99.90    
       -99.90      -99.90      -99.90      -99.90      -99.90      -99.90      -99.90      -99.90      -99.90      -99.90    
       -99.90      -99.90      -99.90      -99.90      -99.90      -99.90      -99.90      -99.90      -99.90      -99.90    
  32   -99.90      -99.90      -99.90      -99.90      -99.90      -99.90      -99.90      -99.90      -99.90      -99.90    
       -99.90      -99.90      -99.90      -99.90      -99.90      -99.90      -99.90      -99.90      -99.90      -99.90    
       -99.90      -99.90      -99.90      -99.90      -99.90      -99.90      -99.90      -99.90      -99.90      -99.90    
       -99.90      -99.90      -99.90      -99.90      -99.90      -99.90      -99.90      -99.90      -99.90      -99.90    
  33   -99.90      -99.90      -99.90      -99.90      -99.90      -99.90      -99.90      -99.90      -99.90      -99.90    
       -99.90      -99.90      -99.90      -99.90      -99.90      -99.90      -99.90      -99.90      -99.90      -99.90    
       -99.90      -99.90      -99.90      -99.90      -99.90      -99.90      -99.90      -99.90      -99.90      -99.90    
       -99.90      -99.90      -99.90      -99.90      -99.90      -99.90      -99.90      -99.90      -99.90      -99.90    
  34   -99.90      -99.90      -99.90      -99.90      -99.90      -99.90      -99.90      -99.90      -99.90      -99.90    
       -99.90      -99.90      -99.90      -99.90      -99.90      -99.90      -99.90      -99.90      -99.90      -99.90    
       -99.90      -99.90      -99.90      -99.90      -99.90      -99.90      -99.90      -99.90      -99.90      -99.90    
       -99.90      -99.90      -99.90      -99.90      -99.90      -99.90      -99.90      -99.90      -99.90      -99.90    
  35   -99.90      -99.90      -99.90      -99.90      -99.90      -99.90      -99.90      -99.90      -99.90      -99.90    
       -99.90      -99.90      -99.90      -99.90      -99.90      -99.90      -99.90      -99.90      -99.90      -99.90    
       -99.90      -99.90      -99.90      -99.90      -99.90      -99.90      -99.90      -99.90      -99.90      -99.90    
       -99.90      -99.90      -99.90      -99.90      -99.90      -99.90      -99.90      -99.90      -99.90      -99.90    
  36   -99.90      -99.90      -99.90      -99.90      -99.90      -99.90      -99.90      -99.90      -99.90      -99.90    
       -99.90      -99.90      -99.90      -99.90      -99.90      -99.90      -99.90      -99.90      -99.90      -99.90    
       -99.90      -99.90      -99.90      -99.90      -99.90      -99.90      -99.90      -99.90      -99.90      -99.90    
       -99.90      -99.90      -99.90      -99.90      -99.90      -99.90      -99.90      -99.90      -99.90      -99.90    
  37   -99.90      -99.90      -99.90      -99.90      -99.90      -99.90      -99.90      -99.90      -99.90      -99.90    
       -99.90      -99.90      -99.90      -99.90      -99.90      -99.90      -99.90      -99.90      -99.90      -99.90    
       -99.90      -99.90      -99.90      -99.90      -99.90      -99.90      -99.90      -99.90      -99.90      -99.90    
       -99.90      -99.90      -99.90      -99.90      -99.90      -99.90      -99.90      -99.90      -99.90      -99.90    
  38   -99.90      -99.90      -99.90      -99.90      -99.90      -99.90      -99.90      -99.90      -99.90      -99.90    
       -99.90      -99.90      -99.90      -99.90      -99.90      -99.90      -99.90      -99.90      -99.90      -99.90    
       -99.90      -99.90      -99.90      -99.90      -99.90      -99.90      -99.90      -99.90      -99.90      -99.90    
       -99.90      -99.90      -99.90      -99.90      -99.90      -99.90      -99.90      -99.90      -99.90      -99.90    
  39   -99.90      -99.90      -99.90      -99.90      -99.90      -99.90      -99.90      -99.90      -99.90      -99.90    
       -99.90      -99.90      -99.90      -99.90      -99.90      -99.90      -99.90      -99.90      -99.90      -99.90    
       -99.90      -99.90      -99.90      -99.90      -99.90      -99.90      -99.90      -99.90      -99.90      -99.90    
       -99.90      -99.90      -99.90      -99.90      -99.90      -99.90      -99.90      -99.90      -99.90      -99.90    
  40   -99.90      -99.90      -99.90      -99.90      -99.90      -99.90      -99.90      -99.90      -99.90      -99.90    
       -99.90      -99.90      -99.90      -99.90      -99.90      -99.90      -99.90      -99.90      -99.90      -99.90    
       -99.90      -99.90      -99.90      -99.90      -99.90      -99.90      -99.90      -99.90      -99.90      -99.90    
       -99.90      -99.90      -99.90      -99.90      -99.90      -99.90      -99.90      -99.90      -99.90      -99.90    
1
              HEAD IN LAYER   6 AT END OF TIME STEP   2 IN STRESS PERIOD    2
  ---------------------------------------------------------------------------

            1           2           3           4           5           6           7           8           9          10
           11          12          13          14          15          16          17          18          19          20
           21          22          23          24          25          26          27          28          29          30
           31          32          33          34          35          36          37          38          39          40
 ........................................................................................................................
   1    47.84       46.43      -99.90      -99.90      -99.90      -99.90      -99.90      -99.90      -99.90      -99.90    
       -99.90      -99.90      -99.90      -99.90      -99.90      -99.90      -99.90      -99.90      -99.90      -99.90    
       -99.90      -99.90      -99.90      -99.90      -99.90      -99.90      -99.90      -99.90      -99.90      -99.90    
       -99.90      -99.90      -99.90      -99.90      -99.90      -99.90      -99.90      -99.90      -99.90      -99.90    
   2    46.43       45.14      -99.90      -99.90      -99.90      -99.90      -99.90      -99.90      -99.90      -99.90    
       -99.90      -99.90      -99.90      -99.90      -99.90      -99.90      -99.90      -99.90      -99.90      -99.90    
       -99.90      -99.90      -99.90      -99.90      -99.90      -99.90      -99.90      -99.90      -99.90      -99.90    
       -99.90      -99.90      -99.90      -99.90      -99.90      -99.90      -99.90      -99.90      -99.90      -99.90    
   3   -99.90      -99.90      -99.90      -99.90      -99.90      -99.90      -99.90      -99.90      -99.90      -99.90    
       -99.90      -99.90      -99.90      -99.90      -99.90      -99.90      -99.90      -99.90      -99.90      -99.90    
       -99.90      -99.90      -99.90      -99.90      -99.90      -99.90      -99.90      -99.90      -99.90      -99.90    
       -99.90      -99.90      -99.90      -99.90      -99.90      -99.90      -99.90      -99.90      -99.90      -99.90    
   4   -99.90      -99.90      -99.90      -99.90      -99.90      -99.90      -99.90      -99.90      -99.90      -99.90    
       -99.90      -99.90      -99.90      -99.90      -99.90      -99.90      -99.90      -99.90      -99.90      -99.90    
       -99.90      -99.90      -99.90      -99.90      -99.90      -99.90      -99.90      -99.90      -99.90      -99.90    
       -99.90      -99.90      -99.90      -99.90      -99.90      -99.90      -99.90      -99.90      -99.90      -99.90    
   5   -99.90      -99.90      -99.90      -99.90      -99.90      -99.90      -99.90      -99.90      -99.90      -99.90    
       -99.90      -99.90      -99.90      -99.90      -99.90      -99.90      -99.90      -99.90      -99.90      -99.90    
       -99.90      -99.90      -99.90      -99.90      -99.90      -99.90      -99.90      -99.90      -99.90      -99.90    
       -99.90      -99.90      -99.90      -99.90      -99.90      -99.90      -99.90      -99.90      -99.90      -99.90    
   6   -99.90      -99.90      -99.90      -99.90      -99.90      -99.90      -99.90      -99.90      -99.90      -99.90    
       -99.90      -99.90      -99.90      -99.90      -99.90      -99.90      -99.90      -99.90      -99.90      -99.90    
       -99.90      -99.90      -99.90      -99.90      -99.90      -99.90      -99.90      -99.90      -99.90      -99.90    
       -99.90      -99.90      -99.90      -99.90      -99.90      -99.90      -99.90      -99.90      -99.90      -99.90    
   7   -99.90      -99.90      -99.90      -99.90      -99.90      -99.90      -99.90      -99.90      -99.90      -99.90    
       -99.90      -99.90      -99.90      -99.90      -99.90      -99.90      -99.90      -99.90      -99.90      -99.90    
       -99.90      -99.90      -99.90      -99.90      -99.90      -99.90      -99.90      -99.90      -99.90      -99.90    
       -99.90      -99.90      -99.90      -99.90      -99.90      -99.90      -99.90      -99.90      -99.90      -99.90    
   8   -99.90      -99.90      -99.90      -99.90      -99.90      -99.90      -99.90      -99.90      -99.90      -99.90    
       -99.90      -99.90      -99.90      -99.90      -99.90      -99.90      -99.90      -99.90      -99.90      -99.90    
       -99.90      -99.90      -99.90      -99.90      -99.90      -99.90      -99.90      -99.90      -99.90      -99.90    
       -99.90      -99.90      -99.90      -99.90      -99.90      -99.90      -99.90      -99.90      -99.90      -99.90    
   9   -99.90      -99.90      -99.90      -99.90      -99.90      -99.90      -99.90      -99.90      -99.90      -99.90    
       -99.90      -99.90      -99.90      -99.90      -99.90      -99.90      -99.90      -99.90      -99.90      -99.90    
       -99.90      -99.90      -99.90      -99.90      -99.90      -99.90      -99.90      -99.90      -99.90      -99.90    
       -99.90      -99.90      -99.90      -99.90      -99.90      -99.90      -99.90      -99.90      -99.90      -99.90    
  10   -99.90      -99.90      -99.90      -99.90      -99.90      -99.90      -99.90      -99.90      -99.90      -99.90    
       -99.90      -99.90      -99.90      -99.90      -99.90      -99.90      -99.90      -99.90      -99.90      -99.90    
       -99.90      -99.90      -99.90      -99.90      -99.90      -99.90      -99.90      -99.90      -99.90      -99.90    
       -99.90      -99.90      -99.90      -99.90      -99.90      -99.90      -99.90      -99.90      -99.90      -99.90    
  11   -99.90      -99.90      -99.90      -99.90      -99.90      -99.90      -99.90      -99.90      -99.90      -99.90    
       -99.90      -99.90      -99.90      -99.90      -99.90      -99.90      -99.90      -99.90      -99.90      -99.90    
       -99.90      -99.90      -99.90      -99.90      -99.90      -99.90      -99.90      -99.90      -99.90      -99.90    
       -99.90      -99.90      -99.90      -99.90      -99.90      -99.90      -99.90      -99.90      -99.90      -99.90    
  12   -99.90      -99.90      -99.90      -99.90      -99.90      -99.90      -99.90      -99.90      -99.90      -99.90    
       -99.90      -99.90      -99.90      -99.90      -99.90      -99.90      -99.90      -99.90      -99.90      -99.90    
       -99.90      -99.90      -99.90      -99.90      -99.90      -99.90      -99.90      -99.90      -99.90      -99.90    
       -99.90      -99.90      -99.90      -99.90      -99.90      -99.90      -99.90      -99.90      -99.90      -99.90    
  13   -99.90      -99.90      -99.90      -99.90      -99.90      -99.90      -99.90      -99.90      -99.90      -99.90    
       -99.90      -99.90      -99.90      -99.90      -99.90      -99.90      -99.90      -99.90      -99.90      -99.90    
       -99.90      -99.90      -99.90      -99.90      -99.90      -99.90      -99.90      -99.90      -99.90      -99.90    
       -99.90      -99.90      -99.90      -99.90      -99.90      -99.90      -99.90      -99.90      -99.90      -99.90    
  14   -99.90      -99.90      -99.90      -99.90      -99.90      -99.90      -99.90      -99.90      -99.90      -99.90    
       -99.90      -99.90      -99.90      -99.90      -99.90      -99.90      -99.90      -99.90      -99.90      -99.90    
       -99.90      -99.90      -99.90      -99.90      -99.90      -99.90      -99.90      -99.90      -99.90      -99.90    
       -99.90      -99.90      -99.90      -99.90      -99.90      -99.90      -99.90      -99.90      -99.90      -99.90    
  15   -99.90      -99.90      -99.90      -99.90      -99.90      -99.90      -99.90      -99.90      -99.90      -99.90    
       -99.90      -99.90      -99.90      -99.90      -99.90      -99.90      -99.90      -99.90      -99.90      -99.90    
       -99.90      -99.90      -99.90      -99.90      -99.90      -99.90      -99.90      -99.90      -99.90      -99.90    
       -99.90      -99.90      -99.90      -99.90      -99.90      -99.90      -99.90      -99.90      -99.90      -99.90    
  16   -99.90      -99.90      -99.90      -99.90      -99.90      -99.90      -99.90      -99.90      -99.90      -99.90    
       -99.90      -99.90      -99.90      -99.90      -99.90      -99.90      -99.90      -99.90      -99.90      -99.90    
       -99.90      -99.90      -99.90      -99.90      -99.90      -99.90      -99.90      -99.90      -99.90      -99.90    
       -99.90      -99.90      -99.90      -99.90      -99.90      -99.90      -99.90      -99.90      -99.90      -99.90    
  17   -99.90      -99.90      -99.90      -99.90      -99.90      -99.90      -99.90      -99.90      -99.90      -99.90    
       -99.90      -99.90      -99.90      -99.90      -99.90      -99.90      -99.90      -99.90      -99.90      -99.90    
       -99.90      -99.90      -99.90      -99.90      -99.90      -99.90      -99.90      -99.90      -99.90      -99.90    
       -99.90      -99.90      -99.90      -99.90      -99.90      -99.90      -99.90      -99.90      -99.90      -99.90    
  18   -99.90      -99.90      -99.90      -99.90      -99.90      -99.90      -99.90      -99.90      -99.90      -99.90    
       -99.90      -99.90      -99.90      -99.90      -99.90      -99.90      -99.90      -99.90      -99.90      -99.90    
       -99.90      -99.90      -99.90      -99.90      -99.90      -99.90      -99.90      -99.90      -99.90      -99.90    
       -99.90      -99.90      -99.90      -99.90      -99.90      -99.90      -99.90      -99.90      -99.90      -99.90    
  19   -99.90      -99.90      -99.90      -99.90      -99.90      -99.90      -99.90      -99.90      -99.90      -99.90    
       -99.90      -99.90      -99.90      -99.90      -99.90      -99.90      -99.90      -99.90      -99.90      -99.90    
       -99.90      -99.90      -99.90      -99.90      -99.90      -99.90      -99.90      -99.90      -99.90      -99.90    
       -99.90      -99.90      -99.90      -99.90      -99.90      -99.90      -99.90      -99.90      -99.90      -99.90    
  20   -99.90      -99.90      -99.90      -99.90      -99.90      -99.90      -99.90      -99.90      -99.90      -99.90    
       -99.90      -99.90      -99.90      -99.90      -99.90      -99.90      -99.90      -99.90      -99.90      -99.90    
       -99.90      -99.90      -99.90      -99.90      -99.90      -99.90      -99.90      -99.90      -99.90      -99.90    
       -99.90      -99.90      -99.90      -99.90      -99.90      -99.90      -99.90      -99.90      -99.90      -99.90    
  21   -99.90      -99.90      -99.90      -99.90      -99.90      -99.90      -99.90      -99.90      -99.90      -99.90    
       -99.90      -99.90      -99.90      -99.90      -99.90      -99.90      -99.90      -99.90      -99.90      -99.90    
       -99.90      -99.90      -99.90      -99.90      -99.90      -99.90      -99.90      -99.90      -99.90      -99.90    
       -99.90      -99.90      -99.90      -99.90      -99.90      -99.90      -99.90      -99.90      -99.90      -99.90    
  22   -99.90      -99.90      -99.90      -99.90      -99.90      -99.90      -99.90      -99.90      -99.90      -99.90    
       -99.90      -99.90      -99.90      -99.90      -99.90      -99.90      -99.90      -99.90      -99.90      -99.90    
       -99.90      -99.90      -99.90      -99.90      -99.90      -99.90      -99.90      -99.90      -99.90      -99.90    
       -99.90      -99.90      -99.90      -99.90      -99.90      -99.90      -99.90      -99.90      -99.90      -99.90    
  23   -99.90      -99.90      -99.90      -99.90      -99.90      -99.90      -99.90      -99.90      -99.90      -99.90    
       -99.90      -99.90      -99.90      -99.90      -99.90      -99.90      -99.90      -99.90      -99.90      -99.90    
       -99.90      -99.90      -99.90      -99.90      -99.90      -99.90      -99.90      -99.90      -99.90      -99.90    
       -99.90      -99.90      -99.90      -99.90      -99.90      -99.90      -99.90      -99.90      -99.90      -99.90    
  24   -99.90      -99.90      -99.90      -99.90      -99.90      -99.90      -99.90      -99.90      -99.90      -99.90    
       -99.90      -99.90      -99.90      -99.90      -99.90      -99.90      -99.90      -99.90      -99.90      -99.90    
       -99.90      -99.90      -99.90      -99.90      -99.90      -99.90      -99.90      -99.90      -99.90      -99.90    
       -99.90      -99.90      -99.90      -99.90      -99.90      -99.90      -99.90      -99.90      -99.90      -99.90    
  25   -99.90      -99.90      -99.90      -99.90      -99.90      -99.90      -99.90      -99.90      -99.90      -99.90    
       -99.90      -99.90      -99.90      -99.90      -99.90      -99.90      -99.90      -99.90      -99.90      -99.90    
       -99.90      -99.90      -99.90      -99.90      -99.90      -99.90      -99.90      -99.90      -99.90      -99.90    
       -99.90      -99.90      -99.90      -99.90      -99.90      -99.90      -99.90      -99.90      -99.90      -99.90    
  26   -99.90      -99.90      -99.90      -99.90      -99.90      -99.90      -99.90      -99.90      -99.90      -99.90    
       -99.90      -99.90      -99.90      -99.90      -99.90      -99.90      -99.90      -99.90      -99.90      -99.90    
       -99.90      -99.90      -99.90      -99.90      -99.90      -99.90      -99.90      -99.90      -99.90      -99.90    
       -99.90      -99.90      -99.90      -99.90      -99.90      -99.90      -99.90      -99.90      -99.90      -99.90    
  27   -99.90      -99.90      -99.90      -99.90      -99.90      -99.90      -99.90      -99.90      -99.90      -99.90    
       -99.90      -99.90      -99.90      -99.90      -99.90      -99.90      -99.90      -99.90      -99.90      -99.90    
       -99.90      -99.90      -99.90      -99.90      -99.90      -99.90      -99.90      -99.90      -99.90      -99.90    
       -99.90      -99.90      -99.90      -99.90      -99.90      -99.90      -99.90      -99.90      -99.90      -99.90    
  28   -99.90      -99.90      -99.90      -99.90      -99.90      -99.90      -99.90      -99.90      -99.90      -99.90    
       -99.90      -99.90      -99.90      -99.90      -99.90      -99.90      -99.90      -99.90      -99.90      -99.90    
       -99.90      -99.90      -99.90      -99.90      -99.90      -99.90      -99.90      -99.90      -99.90      -99.90    
       -99.90      -99.90      -99.90      -99.90      -99.90      -99.90      -99.90      -99.90      -99.90      -99.90    
  29   -99.90      -99.90      -99.90      -99.90      -99.90      -99.90      -99.90      -99.90      -99.90      -99.90    
       -99.90      -99.90      -99.90      -99.90      -99.90      -99.90      -99.90      -99.90      -99.90      -99.90    
       -99.90      -99.90      -99.90      -99.90      -99.90      -99.90      -99.90      -99.90      -99.90      -99.90    
       -99.90      -99.90      -99.90      -99.90      -99.90      -99.90      -99.90      -99.90      -99.90      -99.90    
  30   -99.90      -99.90      -99.90      -99.90      -99.90      -99.90      -99.90      -99.90      -99.90      -99.90    
       -99.90      -99.90      -99.90      -99.90      -99.90      -99.90      -99.90      -99.90      -99.90      -99.90    
       -99.90      -99.90      -99.90      -99.90      -99.90      -99.90      -99.90      -99.90      -99.90      -99.90    
       -99.90      -99.90      -99.90      -99.90      -99.90      -99.90      -99.90      -99.90      -99.90      -99.90    
  31   -99.90      -99.90      -99.90      -99.90      -99.90      -99.90      -99.90      -99.90      -99.90      -99.90    
       -99.90      -99.90      -99.90      -99.90      -99.90      -99.90      -99.90      -99.90      -99.90      -99.90    
       -99.90      -99.90      -99.90      -99.90      -99.90      -99.90      -99.90      -99.90      -99.90      -99.90    
       -99.90      -99.90      -99.90      -99.90      -99.90      -99.90      -99.90      -99.90      -99.90      -99.90    
  32   -99.90      -99.90      -99.90      -99.90      -99.90      -99.90      -99.90      -99.90      -99.90      -99.90    
       -99.90      -99.90      -99.90      -99.90      -99.90      -99.90      -99.90      -99.90      -99.90      -99.90    
       -99.90      -99.90      -99.90      -99.90      -99.90      -99.90      -99.90      -99.90      -99.90      -99.90    
       -99.90      -99.90      -99.90      -99.90      -99.90      -99.90      -99.90      -99.90      -99.90      -99.90    
  33   -99.90      -99.90      -99.90      -99.90      -99.90      -99.90      -99.90      -99.90      -99.90      -99.90    
       -99.90      -99.90      -99.90      -99.90      -99.90      -99.90      -99.90      -99.90      -99.90      -99.90    
       -99.90      -99.90      -99.90      -99.90      -99.90      -99.90      -99.90      -99.90      -99.90      -99.90    
       -99.90      -99.90      -99.90      -99.90      -99.90      -99.90      -99.90      -99.90      -99.90      -99.90    
  34   -99.90      -99.90      -99.90      -99.90      -99.90      -99.90      -99.90      -99.90      -99.90      -99.90    
       -99.90      -99.90      -99.90      -99.90      -99.90      -99.90      -99.90      -99.90      -99.90      -99.90    
       -99.90      -99.90      -99.90      -99.90      -99.90      -99.90      -99.90      -99.90      -99.90      -99.90    
       -99.90      -99.90      -99.90      -99.90      -99.90      -99.90      -99.90      -99.90      -99.90      -99.90    
  35   -99.90      -99.90      -99.90      -99.90      -99.90      -99.90      -99.90      -99.90      -99.90      -99.90    
       -99.90      -99.90      -99.90      -99.90      -99.90      -99.90      -99.90      -99.90      -99.90      -99.90    
       -99.90      -99.90      -99.90      -99.90      -99.90      -99.90      -99.90      -99.90      -99.90      -99.90    
       -99.90      -99.90      -99.90      -99.90      -99.90      -99.90      -99.90      -99.90      -99.90      -99.90    
  36   -99.90      -99.90      -99.90      -99.90      -99.90      -99.90      -99.90      -99.90      -99.90      -99.90    
       -99.90      -99.90      -99.90      -99.90      -99.90      -99.90      -99.90      -99.90      -99.90      -99.90    
       -99.90      -99.90      -99.90      -99.90      -99.90      -99.90      -99.90      -99.90      -99.90      -99.90    
       -99.90      -99.90      -99.90      -99.90      -99.90      -99.90      -99.90      -99.90      -99.90      -99.90    
  37   -99.90      -99.90      -99.90      -99.90      -99.90      -99.90      -99.90      -99.90      -99.90      -99.90    
       -99.90      -99.90      -99.90      -99.90      -99.90      -99.90      -99.90      -99.90      -99.90      -99.90    
       -99.90      -99.90      -99.90      -99.90      -99.90      -99.90      -99.90      -99.90      -99.90      -99.90    
       -99.90      -99.90      -99.90      -99.90      -99.90      -99.90      -99.90      -99.90      -99.90      -99.90    
  38   -99.90      -99.90      -99.90      -99.90      -99.90      -99.90      -99.90      -99.90      -99.90      -99.90    
       -99.90      -99.90      -99.90      -99.90      -99.90      -99.90      -99.90      -99.90      -99.90      -99.90    
       -99.90      -99.90      -99.90      -99.90      -99.90      -99.90      -99.90      -99.90      -99.90      -99.90    
       -99.90      -99.90      -99.90      -99.90      -99.90      -99.90      -99.90      -99.90      -99.90      -99.90    
  39   -99.90      -99.90      -99.90      -99.90      -99.90      -99.90      -99.90      -99.90      -99.90      -99.90    
       -99.90      -99.90      -99.90      -99.90      -99.90      -99.90      -99.90      -99.90      -99.90      -99.90    
       -99.90      -99.90      -99.90      -99.90      -99.90      -99.90      -99.90      -99.90      -99.90      -99.90    
       -99.90      -99.90      -99.90      -99.90      -99.90      -99.90      -99.90      -99.90      -99.90      -99.90    
  40   -99.90      -99.90      -99.90      -99.90      -99.90      -99.90      -99.90      -99.90      -99.90      -99.90    
       -99.90      -99.90      -99.90      -99.90      -99.90      -99.90      -99.90      -99.90      -99.90      -99.90    
       -99.90      -99.90      -99.90      -99.90      -99.90      -99.90      -99.90      -99.90      -99.90      -99.90    
       -99.90      -99.90      -99.90      -99.90      -99.90      -99.90      -99.90      -99.90      -99.90      -99.90    
1
              HEAD IN LAYER   7 AT END OF TIME STEP   2 IN STRESS PERIOD    2
  ---------------------------------------------------------------------------

            1           2           3           4           5           6           7           8           9          10
           11          12          13          14          15          16          17          18          19          20
           21          22          23          24          25          26          27          28          29          30
           31          32          33          34          35          36          37          38          39          40
 ........................................................................................................................
   1    47.01       45.46       39.85       36.58      -99.90      -99.90      -99.90      -99.90      -99.90      -99.90    
       -99.90      -99.90      -99.90      -99.90      -99.90      -99.90      -99.90      -99.90      -99.90      -99.90    
       -99.90      -99.90      -99.90      -99.90      -99.90      -99.90      -99.90      -99.90      -99.90      -99.90    
       -99.90      -99.90      -99.90      -99.90      -99.90      -99.90      -99.90      -99.90      -99.90      -99.90    
   2    45.46       44.08       38.87       35.90      -99.90      -99.90      -99.90      -99.90      -99.90      -99.90    
       -99.90      -99.90      -99.90      -99.90      -99.90      -99.90      -99.90      -99.90      -99.90      -99.90    
       -99.90      -99.90      -99.90      -99.90      -99.90      -99.90      -99.90      -99.90      -99.90      -99.90    
       -99.90      -99.90      -99.90      -99.90      -99.90      -99.90      -99.90      -99.90      -99.90      -99.90    
   3    39.85       38.87       36.74      -99.90      -99.90      -99.90      -99.90      -99.90      -99.90      -99.90    
       -99.90      -99.90      -99.90      -99.90      -99.90      -99.90      -99.90      -99.90      -99.90      -99.90    
       -99.90      -99.90      -99.90      -99.90      -99.90      -99.90      -99.90      -99.90      -99.90      -99.90    
       -99.90      -99.90      -99.90      -99.90      -99.90      -99.90      -99.90      -99.90      -99.90      -99.90    
   4    36.58       35.90      -99.90      -99.90      -99.90      -99.90      -99.90      -99.90      -99.90      -99.90    
       -99.90      -99.90      -99.90      -99.90      -99.90      -99.90      -99.90      -99.90      -99.90      -99.90    
       -99.90      -99.90      -99.90      -99.90      -99.90      -99.90      -99.90      -99.90      -99.90      -99.90    
       -99.90      -99.90      -99.90      -99.90      -99.90      -99.90      -99.90      -99.90      -99.90      -99.90    
   5   -99.90      -99.90      -99.90      -99.90      -99.90      -99.90      -99.90      -99.90      -99.90      -99.90    
       -99.90      -99.90      -99.90      -99.90      -99.90      -99.90      -99.90      -99.90      -99.90      -99.90    
       -99.90      -99.90      -99.90      -99.90      -99.90      -99.90      -99.90      -99.90      -99.90      -99.90    
       -99.90      -99.90      -99.90      -99.90      -99.90      -99.90      -99.90      -99.90      -99.90      -99.90    
   6   -99.90      -99.90      -99.90      -99.90      -99.90      -99.90      -99.90      -99.90      -99.90      -99.90    
       -99.90      -99.90      -99.90      -99.90      -99.90      -99.90      -99.90      -99.90      -99.90      -99.90    
       -99.90      -99.90      -99.90      -99.90      -99.90      -99.90      -99.90      -99.90      -99.90      -99.90    
       -99.90      -99.90      -99.90      -99.90      -99.90      -99.90      -99.90      -99.90      -99.90      -99.90    
   7   -99.90      -99.90      -99.90      -99.90      -99.90      -99.90      -99.90      -99.90      -99.90      -99.90    
       -99.90      -99.90      -99.90      -99.90      -99.90      -99.90      -99.90      -99.90      -99.90      -99.90    
       -99.90      -99.90      -99.90      -99.90      -99.90      -99.90      -99.90      -99.90      -99.90      -99.90    
       -99.90      -99.90      -99.90      -99.90      -99.90      -99.90      -99.90      -99.90      -99.90      -99.90    
   8   -99.90      -99.90      -99.90      -99.90      -99.90      -99.90      -99.90      -99.90      -99.90      -99.90    
       -99.90      -99.90      -99.90      -99.90      -99.90      -99.90      -99.90      -99.90      -99.90      -99.90    
       -99.90      -99.90      -99.90      -99.90      -99.90      -99.90      -99.90      -99.90      -99.90      -99.90    
       -99.90      -99.90      -99.90      -99.90      -99.90      -99.90      -99.90      -99.90      -99.90      -99.90    
   9   -99.90      -99.90      -99.90      -99.90      -99.90      -99.90      -99.90      -99.90      -99.90      -99.90    
       -99.90      -99.90      -99.90      -99.90      -99.90      -99.90      -99.90      -99.90      -99.90      -99.90    
       -99.90      -99.90      -99.90      -99.90      -99.90      -99.90      -99.90      -99.90      -99.90      -99.90    
       -99.90      -99.90      -99.90      -99.90      -99.90      -99.90      -99.90      -99.90      -99.90      -99.90    
  10   -99.90      -99.90      -99.90      -99.90      -99.90      -99.90      -99.90      -99.90      -99.90      -99.90    
       -99.90      -99.90      -99.90      -99.90      -99.90      -99.90      -99.90      -99.90      -99.90      -99.90    
       -99.90      -99.90      -99.90      -99.90      -99.90      -99.90      -99.90      -99.90      -99.90      -99.90    
       -99.90      -99.90      -99.90      -99.90      -99.90      -99.90      -99.90      -99.90      -99.90      -99.90    
  11   -99.90      -99.90      -99.90      -99.90      -99.90      -99.90      -99.90      -99.90      -99.90      -99.90    
       -99.90      -99.90      -99.90      -99.90      -99.90      -99.90      -99.90      -99.90      -99.90      -99.90    
       -99.90      -99.90      -99.90      -99.90      -99.90      -99.90      -99.90      -99.90      -99.90      -99.90    
       -99.90      -99.90      -99.90      -99.90      -99.90      -99.90      -99.90      -99.90      -99.90      -99.90    
  12   -99.90      -99.90      -99.90      -99.90      -99.90      -99.90      -99.90      -99.90      -99.90      -99.90    
       -99.90      -99.90      -99.90      -99.90      -99.90      -99.90      -99.90      -99.90      -99.90      -99.90    
       -99.90      -99.90      -99.90      -99.90      -99.90      -99.90      -99.90      -99.90      -99.90      -99.90    
       -99.90      -99.90      -99.90      -99.90      -99.90      -99.90      -99.90      -99.90      -99.90      -99.90    
  13   -99.90      -99.90      -99.90      -99.90      -99.90      -99.90      -99.90      -99.90      -99.90      -99.90    
       -99.90      -99.90      -99.90      -99.90      -99.90      -99.90      -99.90      -99.90      -99.90      -99.90    
       -99.90      -99.90      -99.90      -99.90      -99.90      -99.90      -99.90      -99.90      -99.90      -99.90    
       -99.90      -99.90      -99.90      -99.90      -99.90      -99.90      -99.90      -99.90      -99.90      -99.90    
  14   -99.90      -99.90      -99.90      -99.90      -99.90      -99.90      -99.90      -99.90      -99.90      -99.90    
       -99.90      -99.90      -99.90      -99.90      -99.90      -99.90      -99.90      -99.90      -99.90      -99.90    
       -99.90      -99.90      -99.90      -99.90      -99.90      -99.90      -99.90      -99.90      -99.90      -99.90    
       -99.90      -99.90      -99.90      -99.90      -99.90      -99.90      -99.90      -99.90      -99.90      -99.90    
  15   -99.90      -99.90      -99.90      -99.90      -99.90      -99.90      -99.90      -99.90      -99.90      -99.90    
       -99.90      -99.90      -99.90      -99.90      -99.90      -99.90      -99.90      -99.90      -99.90      -99.90    
       -99.90      -99.90      -99.90      -99.90      -99.90      -99.90      -99.90      -99.90      -99.90      -99.90    
       -99.90      -99.90      -99.90      -99.90      -99.90      -99.90      -99.90      -99.90      -99.90      -99.90    
  16   -99.90      -99.90      -99.90      -99.90      -99.90      -99.90      -99.90      -99.90      -99.90      -99.90    
       -99.90      -99.90      -99.90      -99.90      -99.90      -99.90      -99.90      -99.90      -99.90      -99.90    
       -99.90      -99.90      -99.90      -99.90      -99.90      -99.90      -99.90      -99.90      -99.90      -99.90    
       -99.90      -99.90      -99.90      -99.90      -99.90      -99.90      -99.90      -99.90      -99.90      -99.90    
  17   -99.90      -99.90      -99.90      -99.90      -99.90      -99.90      -99.90      -99.90      -99.90      -99.90    
       -99.90      -99.90      -99.90      -99.90      -99.90      -99.90      -99.90      -99.90      -99.90      -99.90    
       -99.90      -99.90      -99.90      -99.90      -99.90      -99.90      -99.90      -99.90      -99.90      -99.90    
       -99.90      -99.90      -99.90      -99.90      -99.90      -99.90      -99.90      -99.90      -99.90      -99.90    
  18   -99.90      -99.90      -99.90      -99.90      -99.90      -99.90      -99.90      -99.90      -99.90      -99.90    
       -99.90      -99.90      -99.90      -99.90      -99.90      -99.90      -99.90      -99.90      -99.90      -99.90    
       -99.90      -99.90      -99.90      -99.90      -99.90      -99.90      -99.90      -99.90      -99.90      -99.90    
       -99.90      -99.90      -99.90      -99.90      -99.90      -99.90      -99.90      -99.90      -99.90      -99.90    
  19   -99.90      -99.90      -99.90      -99.90      -99.90      -99.90      -99.90      -99.90      -99.90      -99.90    
       -99.90      -99.90      -99.90      -99.90      -99.90      -99.90      -99.90      -99.90      -99.90      -99.90    
       -99.90      -99.90      -99.90      -99.90      -99.90      -99.90      -99.90      -99.90      -99.90      -99.90    
       -99.90      -99.90      -99.90      -99.90      -99.90      -99.90      -99.90      -99.90      -99.90      -99.90    
  20   -99.90      -99.90      -99.90      -99.90      -99.90      -99.90      -99.90      -99.90      -99.90      -99.90    
       -99.90      -99.90      -99.90      -99.90      -99.90      -99.90      -99.90      -99.90      -99.90      -99.90    
       -99.90      -99.90      -99.90      -99.90      -99.90      -99.90      -99.90      -99.90      -99.90      -99.90    
       -99.90      -99.90      -99.90      -99.90      -99.90      -99.90      -99.90      -99.90      -99.90      -99.90    
  21   -99.90      -99.90      -99.90      -99.90      -99.90      -99.90      -99.90      -99.90      -99.90      -99.90    
       -99.90      -99.90      -99.90      -99.90      -99.90      -99.90      -99.90      -99.90      -99.90      -99.90    
       -99.90      -99.90      -99.90      -99.90      -99.90      -99.90      -99.90      -99.90      -99.90      -99.90    
       -99.90      -99.90      -99.90      -99.90      -99.90      -99.90      -99.90      -99.90      -99.90      -99.90    
  22   -99.90      -99.90      -99.90      -99.90      -99.90      -99.90      -99.90      -99.90      -99.90      -99.90    
       -99.90      -99.90      -99.90      -99.90      -99.90      -99.90      -99.90      -99.90      -99.90      -99.90    
       -99.90      -99.90      -99.90      -99.90      -99.90      -99.90      -99.90      -99.90      -99.90      -99.90    
       -99.90      -99.90      -99.90      -99.90      -99.90      -99.90      -99.90      -99.90      -99.90      -99.90    
  23   -99.90      -99.90      -99.90      -99.90      -99.90      -99.90      -99.90      -99.90      -99.90      -99.90    
       -99.90      -99.90      -99.90      -99.90      -99.90      -99.90      -99.90      -99.90      -99.90      -99.90    
       -99.90      -99.90      -99.90      -99.90      -99.90      -99.90      -99.90      -99.90      -99.90      -99.90    
       -99.90      -99.90      -99.90      -99.90      -99.90      -99.90      -99.90      -99.90      -99.90      -99.90    
  24   -99.90      -99.90      -99.90      -99.90      -99.90      -99.90      -99.90      -99.90      -99.90      -99.90    
       -99.90      -99.90      -99.90      -99.90      -99.90      -99.90      -99.90      -99.90      -99.90      -99.90    
       -99.90      -99.90      -99.90      -99.90      -99.90      -99.90      -99.90      -99.90      -99.90      -99.90    
       -99.90      -99.90      -99.90      -99.90      -99.90      -99.90      -99.90      -99.90      -99.90      -99.90    
  25   -99.90      -99.90      -99.90      -99.90      -99.90      -99.90      -99.90      -99.90      -99.90      -99.90    
       -99.90      -99.90      -99.90      -99.90      -99.90      -99.90      -99.90      -99.90      -99.90      -99.90    
       -99.90      -99.90      -99.90      -99.90      -99.90      -99.90      -99.90      -99.90      -99.90      -99.90    
       -99.90      -99.90      -99.90      -99.90      -99.90      -99.90      -99.90      -99.90      -99.90      -99.90    
  26   -99.90      -99.90      -99.90      -99.90      -99.90      -99.90      -99.90      -99.90      -99.90      -99.90    
       -99.90      -99.90      -99.90      -99.90      -99.90      -99.90      -99.90      -99.90      -99.90      -99.90    
       -99.90      -99.90      -99.90      -99.90      -99.90      -99.90      -99.90      -99.90      -99.90      -99.90    
       -99.90      -99.90      -99.90      -99.90      -99.90      -99.90      -99.90      -99.90      -99.90      -99.90    
  27   -99.90      -99.90      -99.90      -99.90      -99.90      -99.90      -99.90      -99.90      -99.90      -99.90    
       -99.90      -99.90      -99.90      -99.90      -99.90      -99.90      -99.90      -99.90      -99.90      -99.90    
       -99.90      -99.90      -99.90      -99.90      -99.90      -99.90      -99.90      -99.90      -99.90      -99.90    
       -99.90      -99.90      -99.90      -99.90      -99.90      -99.90      -99.90      -99.90      -99.90      -99.90    
  28   -99.90      -99.90      -99.90      -99.90      -99.90      -99.90      -99.90      -99.90      -99.90      -99.90    
       -99.90      -99.90      -99.90      -99.90      -99.90      -99.90      -99.90      -99.90      -99.90      -99.90    
       -99.90      -99.90      -99.90      -99.90      -99.90      -99.90      -99.90      -99.90      -99.90      -99.90    
       -99.90      -99.90      -99.90      -99.90      -99.90      -99.90      -99.90      -99.90      -99.90      -99.90    
  29   -99.90      -99.90      -99.90      -99.90      -99.90      -99.90      -99.90      -99.90      -99.90      -99.90    
       -99.90      -99.90      -99.90      -99.90      -99.90      -99.90      -99.90      -99.90      -99.90      -99.90    
       -99.90      -99.90      -99.90      -99.90      -99.90      -99.90      -99.90      -99.90      -99.90      -99.90    
       -99.90      -99.90      -99.90      -99.90      -99.90      -99.90      -99.90      -99.90      -99.90      -99.90    
  30   -99.90      -99.90      -99.90      -99.90      -99.90      -99.90      -99.90      -99.90      -99.90      -99.90    
       -99.90      -99.90      -99.90      -99.90      -99.90      -99.90      -99.90      -99.90      -99.90      -99.90    
       -99.90      -99.90      -99.90      -99.90      -99.90      -99.90      -99.90      -99.90      -99.90      -99.90    
       -99.90      -99.90      -99.90      -99.90      -99.90      -99.90      -99.90      -99.90      -99.90      -99.90    
  31   -99.90      -99.90      -99.90      -99.90      -99.90      -99.90      -99.90      -99.90      -99.90      -99.90    
       -99.90      -99.90      -99.90      -99.90      -99.90      -99.90      -99.90      -99.90      -99.90      -99.90    
       -99.90      -99.90      -99.90      -99.90      -99.90      -99.90      -99.90      -99.90      -99.90      -99.90    
       -99.90      -99.90      -99.90      -99.90      -99.90      -99.90      -99.90      -99.90      -99.90      -99.90    
  32   -99.90      -99.90      -99.90      -99.90      -99.90      -99.90      -99.90      -99.90      -99.90      -99.90    
       -99.90      -99.90      -99.90      -99.90      -99.90      -99.90      -99.90      -99.90      -99.90      -99.90    
       -99.90      -99.90      -99.90      -99.90      -99.90      -99.90      -99.90      -99.90      -99.90      -99.90    
       -99.90      -99.90      -99.90      -99.90      -99.90      -99.90      -99.90      -99.90      -99.90      -99.90    
  33   -99.90      -99.90      -99.90      -99.90      -99.90      -99.90      -99.90      -99.90      -99.90      -99.90    
       -99.90      -99.90      -99.90      -99.90      -99.90      -99.90      -99.90      -99.90      -99.90      -99.90    
       -99.90      -99.90      -99.90      -99.90      -99.90      -99.90      -99.90      -99.90      -99.90      -99.90    
       -99.90      -99.90      -99.90      -99.90      -99.90      -99.90      -99.90      -99.90      -99.90      -99.90    
  34   -99.90      -99.90      -99.90      -99.90      -99.90      -99.90      -99.90      -99.90      -99.90      -99.90    
       -99.90      -99.90      -99.90      -99.90      -99.90      -99.90      -99.90      -99.90      -99.90      -99.90    
       -99.90      -99.90      -99.90      -99.90      -99.90      -99.90      -99.90      -99.90      -99.90      -99.90    
       -99.90      -99.90      -99.90      -99.90      -99.90      -99.90      -99.90      -99.90      -99.90      -99.90    
  35   -99.90      -99.90      -99.90      -99.90      -99.90      -99.90      -99.90      -99.90      -99.90      -99.90    
       -99.90      -99.90      -99.90      -99.90      -99.90      -99.90      -99.90      -99.90      -99.90      -99.90    
       -99.90      -99.90      -99.90      -99.90      -99.90      -99.90      -99.90      -99.90      -99.90      -99.90    
       -99.90      -99.90      -99.90      -99.90      -99.90      -99.90      -99.90      -99.90      -99.90      -99.90    
  36   -99.90      -99.90      -99.90      -99.90      -99.90      -99.90      -99.90      -99.90      -99.90      -99.90    
       -99.90      -99.90      -99.90      -99.90      -99.90      -99.90      -99.90      -99.90      -99.90      -99.90    
       -99.90      -99.90      -99.90      -99.90      -99.90      -99.90      -99.90      -99.90      -99.90      -99.90    
       -99.90      -99.90      -99.90      -99.90      -99.90      -99.90      -99.90      -99.90      -99.90      -99.90    
  37   -99.90      -99.90      -99.90      -99.90      -99.90      -99.90      -99.90      -99.90      -99.90      -99.90    
       -99.90      -99.90      -99.90      -99.90      -99.90      -99.90      -99.90      -99.90      -99.90      -99.90    
       -99.90      -99.90      -99.90      -99.90      -99.90      -99.90      -99.90      -99.90      -99.90      -99.90    
       -99.90      -99.90      -99.90      -99.90      -99.90      -99.90      -99.90      -99.90      -99.90      -99.90    
  38   -99.90      -99.90      -99.90      -99.90      -99.90      -99.90      -99.90      -99.90      -99.90      -99.90    
       -99.90      -99.90      -99.90      -99.90      -99.90      -99.90      -99.90      -99.90      -99.90      -99.90    
       -99.90      -99.90      -99.90      -99.90      -99.90      -99.90      -99.90      -99.90      -99.90      -99.90    
       -99.90      -99.90      -99.90      -99.90      -99.90      -99.90      -99.90      -99.90      -99.90      -99.90    
  39   -99.90      -99.90      -99.90      -99.90      -99.90      -99.90      -99.90      -99.90      -99.90      -99.90    
       -99.90      -99.90      -99.90      -99.90      -99.90      -99.90      -99.90      -99.90      -99.90      -99.90    
       -99.90      -99.90      -99.90      -99.90      -99.90      -99.90      -99.90      -99.90      -99.90      -99.90    
       -99.90      -99.90      -99.90      -99.90      -99.90      -99.90      -99.90      -99.90      -99.90      -99.90    
  40   -99.90      -99.90      -99.90      -99.90      -99.90      -99.90      -99.90      -99.90      -99.90      -99.90    
       -99.90      -99.90      -99.90      -99.90      -99.90      -99.90      -99.90      -99.90      -99.90      -99.90    
       -99.90      -99.90      -99.90      -99.90      -99.90      -99.90      -99.90      -99.90      -99.90      -99.90    
       -99.90      -99.90      -99.90      -99.90      -99.90      -99.90      -99.90      -99.90      -99.90      -99.90    
1
              HEAD IN LAYER   8 AT END OF TIME STEP   2 IN STRESS PERIOD    2
  ---------------------------------------------------------------------------

            1           2           3           4           5           6           7           8           9          10
           11          12          13          14          15          16          17          18          19          20
           21          22          23          24          25          26          27          28          29          30
           31          32          33          34          35          36          37          38          39          40
 ........................................................................................................................
   1    46.29       44.66       39.79       36.56       34.07       32.14       30.59      -99.90      -99.90      -99.90    
       -99.90      -99.90      -99.90      -99.90      -99.90      -99.90      -99.90      -99.90      -99.90      -99.90    
       -99.90      -99.90      -99.90      -99.90      -99.90      -99.90      -99.90      -99.90      -99.90      -99.90    
       -99.90      -99.90      -99.90      -99.90      -99.90      -99.90      -99.90      -99.90      -99.90      -99.90    
   2    44.66       43.23       38.79       35.88       33.63       31.86      -99.90      -99.90      -99.90      -99.90    
       -99.90      -99.90      -99.90      -99.90      -99.90      -99.90      -99.90      -99.90      -99.90      -99.90    
       -99.90      -99.90      -99.90      -99.90      -99.90      -99.90      -99.90      -99.90      -99.90      -99.90    
       -99.90      -99.90      -99.90      -99.90      -99.90      -99.90      -99.90      -99.90      -99.90      -99.90    
   3    39.79       38.79       36.70       34.61       32.82       31.30      -99.90      -99.90      -99.90      -99.90    
       -99.90      -99.90      -99.90      -99.90      -99.90      -99.90      -99.90      -99.90      -99.90      -99.90    
       -99.90      -99.90      -99.90      -99.90      -99.90      -99.90      -99.90      -99.90      -99.90      -99.90    
       -99.90      -99.90      -99.90      -99.90      -99.90      -99.90      -99.90      -99.90      -99.90      -99.90    
   4    36.56       35.88       34.61       33.21       31.83       30.59      -99.90      -99.90      -99.90      -99.90    
       -99.90      -99.90      -99.90      -99.90      -99.90      -99.90      -99.90      -99.90      -99.90      -99.90    
       -99.90      -99.90      -99.90      -99.90      -99.90      -99.90      -99.90      -99.90      -99.90      -99.90    
       -99.90      -99.90      -99.90      -99.90      -99.90      -99.90      -99.90      -99.90      -99.90      -99.90    
   5    34.07       33.63       32.82       31.83       30.81      -99.90      -99.90      -99.90      -99.90      -99.90    
       -99.90      -99.90      -99.90      -99.90      -99.90      -99.90      -99.90      -99.90      -99.90      -99.90    
       -99.90      -99.90      -99.90      -99.90      -99.90      -99.90      -99.90      -99.90      -99.90      -99.90    
       -99.90      -99.90      -99.90      -99.90      -99.90      -99.90      -99.90      -99.90      -99.90      -99.90    
   6    32.14       31.86       31.30       30.59      -99.90      -99.90      -99.90      -99.90      -99.90      -99.90    
       -99.90      -99.90      -99.90      -99.90      -99.90      -99.90      -99.90      -99.90      -99.90      -99.90    
       -99.90      -99.90      -99.90      -99.90      -99.90      -99.90      -99.90      -99.90      -99.90      -99.90    
       -99.90      -99.90      -99.90      -99.90      -99.90      -99.90      -99.90      -99.90      -99.90      -99.90    
   7    30.59      -99.90      -99.90      -99.90      -99.90      -99.90      -99.90      -99.90      -99.90      -99.90    
       -99.90      -99.90      -99.90      -99.90      -99.90      -99.90      -99.90      -99.90      -99.90      -99.90    
       -99.90      -99.90      -99.90      -99.90      -99.90      -99.90      -99.90      -99.90      -99.90      -99.90    
       -99.90      -99.90      -99.90      -99.90      -99.90      -99.90      -99.90      -99.90      -99.90      -99.90    
   8   -99.90      -99.90      -99.90      -99.90      -99.90      -99.90      -99.90      -99.90      -99.90      -99.90    
       -99.90      -99.90      -99.90      -99.90      -99.90      -99.90      -99.90      -99.90      -99.90      -99.90    
       -99.90      -99.90      -99.90      -99.90      -99.90      -99.90      -99.90      -99.90      -99.90      -99.90    
       -99.90      -99.90      -99.90      -99.90      -99.90      -99.90      -99.90      -99.90      -99.90      -99.90    
   9   -99.90      -99.90      -99.90      -99.90      -99.90      -99.90      -99.90      -99.90      -99.90      -99.90    
       -99.90      -99.90      -99.90      -99.90      -99.90      -99.90      -99.90      -99.90      -99.90      -99.90    
       -99.90      -99.90      -99.90      -99.90      -99.90      -99.90      -99.90      -99.90      -99.90      -99.90    
       -99.90      -99.90      -99.90      -99.90      -99.90      -99.90      -99.90      -99.90      -99.90      -99.90    
  10   -99.90      -99.90      -99.90      -99.90      -99.90      -99.90      -99.90      -99.90      -99.90      -99.90    
       -99.90      -99.90      -99.90      -99.90      -99.90      -99.90      -99.90      -99.90      -99.90      -99.90    
       -99.90      -99.90      -99.90      -99.90      -99.90      -99.90      -99.90      -99.90      -99.90      -99.90    
       -99.90      -99.90      -99.90      -99.90      -99.90      -99.90      -99.90      -99.90      -99.90      -99.90    
  11   -99.90      -99.90      -99.90      -99.90      -99.90      -99.90      -99.90      -99.90      -99.90      -99.90    
       -99.90      -99.90      -99.90      -99.90      -99.90      -99.90      -99.90      -99.90      -99.90      -99.90    
       -99.90      -99.90      -99.90      -99.90      -99.90      -99.90      -99.90      -99.90      -99.90      -99.90    
       -99.90      -99.90      -99.90      -99.90      -99.90      -99.90      -99.90      -99.90      -99.90      -99.90    
  12   -99.90      -99.90      -99.90      -99.90      -99.90      -99.90      -99.90      -99.90      -99.90      -99.90    
       -99.90      -99.90      -99.90      -99.90      -99.90      -99.90      -99.90      -99.90      -99.90      -99.90    
       -99.90      -99.90      -99.90      -99.90      -99.90      -99.90      -99.90      -99.90      -99.90      -99.90    
       -99.90      -99.90      -99.90      -99.90      -99.90      -99.90      -99.90      -99.90      -99.90      -99.90    
  13   -99.90      -99.90      -99.90      -99.90      -99.90      -99.90      -99.90      -99.90      -99.90      -99.90    
       -99.90      -99.90      -99.90      -99.90      -99.90      -99.90      -99.90      -99.90      -99.90      -99.90    
       -99.90      -99.90      -99.90      -99.90      -99.90      -99.90      -99.90      -99.90      -99.90      -99.90    
       -99.90      -99.90      -99.90      -99.90      -99.90      -99.90      -99.90      -99.90      -99.90      -99.90    
  14   -99.90      -99.90      -99.90      -99.90      -99.90      -99.90      -99.90      -99.90      -99.90      -99.90    
       -99.90      -99.90      -99.90      -99.90      -99.90      -99.90      -99.90      -99.90      -99.90      -99.90    
       -99.90      -99.90      -99.90      -99.90      -99.90      -99.90      -99.90      -99.90      -99.90      -99.90    
       -99.90      -99.90      -99.90      -99.90      -99.90      -99.90      -99.90      -99.90      -99.90      -99.90    
  15   -99.90      -99.90      -99.90      -99.90      -99.90      -99.90      -99.90      -99.90      -99.90      -99.90    
       -99.90      -99.90      -99.90      -99.90      -99.90      -99.90      -99.90      -99.90      -99.90      -99.90    
       -99.90      -99.90      -99.90      -99.90      -99.90      -99.90      -99.90      -99.90      -99.90      -99.90    
       -99.90      -99.90      -99.90      -99.90      -99.90      -99.90      -99.90      -99.90      -99.90      -99.90    
  16   -99.90      -99.90      -99.90      -99.90      -99.90      -99.90      -99.90      -99.90      -99.90      -99.90    
       -99.90      -99.90      -99.90      -99.90      -99.90      -99.90      -99.90      -99.90      -99.90      -99.90    
       -99.90      -99.90      -99.90      -99.90      -99.90      -99.90      -99.90      -99.90      -99.90      -99.90    
       -99.90      -99.90      -99.90      -99.90      -99.90      -99.90      -99.90      -99.90      -99.90      -99.90    
  17   -99.90      -99.90      -99.90      -99.90      -99.90      -99.90      -99.90      -99.90      -99.90      -99.90    
       -99.90      -99.90      -99.90      -99.90      -99.90      -99.90      -99.90      -99.90      -99.90      -99.90    
       -99.90      -99.90      -99.90      -99.90      -99.90      -99.90      -99.90      -99.90      -99.90      -99.90    
       -99.90      -99.90      -99.90      -99.90      -99.90      -99.90      -99.90      -99.90      -99.90      -99.90    
  18   -99.90      -99.90      -99.90      -99.90      -99.90      -99.90      -99.90      -99.90      -99.90      -99.90    
       -99.90      -99.90      -99.90      -99.90      -99.90      -99.90      -99.90      -99.90      -99.90      -99.90    
       -99.90      -99.90      -99.90      -99.90      -99.90      -99.90      -99.90      -99.90      -99.90      -99.90    
       -99.90      -99.90      -99.90      -99.90      -99.90      -99.90      -99.90      -99.90      -99.90      -99.90    
  19   -99.90      -99.90      -99.90      -99.90      -99.90      -99.90      -99.90      -99.90      -99.90      -99.90    
       -99.90      -99.90      -99.90      -99.90      -99.90      -99.90      -99.90      -99.90      -99.90      -99.90    
       -99.90      -99.90      -99.90      -99.90      -99.90      -99.90      -99.90      -99.90      -99.90      -99.90    
       -99.90      -99.90      -99.90      -99.90      -99.90      -99.90      -99.90      -99.90      -99.90      -99.90    
  20   -99.90      -99.90      -99.90      -99.90      -99.90      -99.90      -99.90      -99.90      -99.90      -99.90    
       -99.90      -99.90      -99.90      -99.90      -99.90      -99.90      -99.90      -99.90      -99.90      -99.90    
       -99.90      -99.90      -99.90      -99.90      -99.90      -99.90      -99.90      -99.90      -99.90      -99.90    
       -99.90      -99.90      -99.90      -99.90      -99.90      -99.90      -99.90      -99.90      -99.90      -99.90    
  21   -99.90      -99.90      -99.90      -99.90      -99.90      -99.90      -99.90      -99.90      -99.90      -99.90    
       -99.90      -99.90      -99.90      -99.90      -99.90      -99.90      -99.90      -99.90      -99.90      -99.90    
       -99.90      -99.90      -99.90      -99.90      -99.90      -99.90      -99.90      -99.90      -99.90      -99.90    
       -99.90      -99.90      -99.90      -99.90      -99.90      -99.90      -99.90      -99.90      -99.90      -99.90    
  22   -99.90      -99.90      -99.90      -99.90      -99.90      -99.90      -99.90      -99.90      -99.90      -99.90    
       -99.90      -99.90      -99.90      -99.90      -99.90      -99.90      -99.90      -99.90      -99.90      -99.90    
       -99.90      -99.90      -99.90      -99.90      -99.90      -99.90      -99.90      -99.90      -99.90      -99.90    
       -99.90      -99.90      -99.90      -99.90      -99.90      -99.90      -99.90      -99.90      -99.90      -99.90    
  23   -99.90      -99.90      -99.90      -99.90      -99.90      -99.90      -99.90      -99.90      -99.90      -99.90    
       -99.90      -99.90      -99.90      -99.90      -99.90      -99.90      -99.90      -99.90      -99.90      -99.90    
       -99.90      -99.90      -99.90      -99.90      -99.90      -99.90      -99.90      -99.90      -99.90      -99.90    
       -99.90      -99.90      -99.90      -99.90      -99.90      -99.90      -99.90      -99.90      -99.90      -99.90    
  24   -99.90      -99.90      -99.90      -99.90      -99.90      -99.90      -99.90      -99.90      -99.90      -99.90    
       -99.90      -99.90      -99.90      -99.90      -99.90      -99.90      -99.90      -99.90      -99.90      -99.90    
       -99.90      -99.90      -99.90      -99.90      -99.90      -99.90      -99.90      -99.90      -99.90      -99.90    
       -99.90      -99.90      -99.90      -99.90      -99.90      -99.90      -99.90      -99.90      -99.90      -99.90    
  25   -99.90      -99.90      -99.90      -99.90      -99.90      -99.90      -99.90      -99.90      -99.90      -99.90    
       -99.90      -99.90      -99.90      -99.90      -99.90      -99.90      -99.90      -99.90      -99.90      -99.90    
       -99.90      -99.90      -99.90      -99.90      -99.90      -99.90      -99.90      -99.90      -99.90      -99.90    
       -99.90      -99.90      -99.90      -99.90      -99.90      -99.90      -99.90      -99.90      -99.90      -99.90    
  26   -99.90      -99.90      -99.90      -99.90      -99.90      -99.90      -99.90      -99.90      -99.90      -99.90    
       -99.90      -99.90      -99.90      -99.90      -99.90      -99.90      -99.90      -99.90      -99.90      -99.90    
       -99.90      -99.90      -99.90      -99.90      -99.90      -99.90      -99.90      -99.90      -99.90      -99.90    
       -99.90      -99.90      -99.90      -99.90      -99.90      -99.90      -99.90      -99.90      -99.90      -99.90    
  27   -99.90      -99.90      -99.90      -99.90      -99.90      -99.90      -99.90      -99.90      -99.90      -99.90    
       -99.90      -99.90      -99.90      -99.90      -99.90      -99.90      -99.90      -99.90      -99.90      -99.90    
       -99.90      -99.90      -99.90      -99.90      -99.90      -99.90      -99.90      -99.90      -99.90      -99.90    
       -99.90      -99.90      -99.90      -99.90      -99.90      -99.90      -99.90      -99.90      -99.90      -99.90    
  28   -99.90      -99.90      -99.90      -99.90      -99.90      -99.90      -99.90      -99.90      -99.90      -99.90    
       -99.90      -99.90      -99.90      -99.90      -99.90      -99.90      -99.90      -99.90      -99.90      -99.90    
       -99.90      -99.90      -99.90      -99.90      -99.90      -99.90      -99.90      -99.90      -99.90      -99.90    
       -99.90      -99.90      -99.90      -99.90      -99.90      -99.90      -99.90      -99.90      -99.90      -99.90    
  29   -99.90      -99.90      -99.90      -99.90      -99.90      -99.90      -99.90      -99.90      -99.90      -99.90    
       -99.90      -99.90      -99.90      -99.90      -99.90      -99.90      -99.90      -99.90      -99.90      -99.90    
       -99.90      -99.90      -99.90      -99.90      -99.90      -99.90      -99.90      -99.90      -99.90      -99.90    
       -99.90      -99.90      -99.90      -99.90      -99.90      -99.90      -99.90      -99.90      -99.90      -99.90    
  30   -99.90      -99.90      -99.90      -99.90      -99.90      -99.90      -99.90      -99.90      -99.90      -99.90    
       -99.90      -99.90      -99.90      -99.90      -99.90      -99.90      -99.90      -99.90      -99.90      -99.90    
       -99.90      -99.90      -99.90      -99.90      -99.90      -99.90      -99.90      -99.90      -99.90      -99.90    
       -99.90      -99.90      -99.90      -99.90      -99.90      -99.90      -99.90      -99.90      -99.90      -99.90    
  31   -99.90      -99.90      -99.90      -99.90      -99.90      -99.90      -99.90      -99.90      -99.90      -99.90    
       -99.90      -99.90      -99.90      -99.90      -99.90      -99.90      -99.90      -99.90      -99.90      -99.90    
       -99.90      -99.90      -99.90      -99.90      -99.90      -99.90      -99.90      -99.90      -99.90      -99.90    
       -99.90      -99.90      -99.90      -99.90      -99.90      -99.90      -99.90      -99.90      -99.90      -99.90    
  32   -99.90      -99.90      -99.90      -99.90      -99.90      -99.90      -99.90      -99.90      -99.90      -99.90    
       -99.90      -99.90      -99.90      -99.90      -99.90      -99.90      -99.90      -99.90      -99.90      -99.90    
       -99.90      -99.90      -99.90      -99.90      -99.90      -99.90      -99.90      -99.90      -99.90      -99.90    
       -99.90      -99.90      -99.90      -99.90      -99.90      -99.90      -99.90      -99.90      -99.90      -99.90    
  33   -99.90      -99.90      -99.90      -99.90      -99.90      -99.90      -99.90      -99.90      -99.90      -99.90    
       -99.90      -99.90      -99.90      -99.90      -99.90      -99.90      -99.90      -99.90      -99.90      -99.90    
       -99.90      -99.90      -99.90      -99.90      -99.90      -99.90      -99.90      -99.90      -99.90      -99.90    
       -99.90      -99.90      -99.90      -99.90      -99.90      -99.90      -99.90      -99.90      -99.90      -99.90    
  34   -99.90      -99.90      -99.90      -99.90      -99.90      -99.90      -99.90      -99.90      -99.90      -99.90    
       -99.90      -99.90      -99.90      -99.90      -99.90      -99.90      -99.90      -99.90      -99.90      -99.90    
       -99.90      -99.90      -99.90      -99.90      -99.90      -99.90      -99.90      -99.90      -99.90      -99.90    
       -99.90      -99.90      -99.90      -99.90      -99.90      -99.90      -99.90      -99.90      -99.90      -99.90    
  35   -99.90      -99.90      -99.90      -99.90      -99.90      -99.90      -99.90      -99.90      -99.90      -99.90    
       -99.90      -99.90      -99.90      -99.90      -99.90      -99.90      -99.90      -99.90      -99.90      -99.90    
       -99.90      -99.90      -99.90      -99.90      -99.90      -99.90      -99.90      -99.90      -99.90      -99.90    
       -99.90      -99.90      -99.90      -99.90      -99.90      -99.90      -99.90      -99.90      -99.90      -99.90    
  36   -99.90      -99.90      -99.90      -99.90      -99.90      -99.90      -99.90      -99.90      -99.90      -99.90    
       -99.90      -99.90      -99.90      -99.90      -99.90      -99.90      -99.90      -99.90      -99.90      -99.90    
       -99.90      -99.90      -99.90      -99.90      -99.90      -99.90      -99.90      -99.90      -99.90      -99.90    
       -99.90      -99.90      -99.90      -99.90      -99.90      -99.90      -99.90      -99.90      -99.90      -99.90    
  37   -99.90      -99.90      -99.90      -99.90      -99.90      -99.90      -99.90      -99.90      -99.90      -99.90    
       -99.90      -99.90      -99.90      -99.90      -99.90      -99.90      -99.90      -99.90      -99.90      -99.90    
       -99.90      -99.90      -99.90      -99.90      -99.90      -99.90      -99.90      -99.90      -99.90      -99.90    
       -99.90      -99.90      -99.90      -99.90      -99.90      -99.90      -99.90      -99.90      -99.90      -99.90    
  38   -99.90      -99.90      -99.90      -99.90      -99.90      -99.90      -99.90      -99.90      -99.90      -99.90    
       -99.90      -99.90      -99.90      -99.90      -99.90      -99.90      -99.90      -99.90      -99.90      -99.90    
       -99.90      -99.90      -99.90      -99.90      -99.90      -99.90      -99.90      -99.90      -99.90      -99.90    
       -99.90      -99.90      -99.90      -99.90      -99.90      -99.90      -99.90      -99.90      -99.90      -99.90    
  39   -99.90      -99.90      -99.90      -99.90      -99.90      -99.90      -99.90      -99.90      -99.90      -99.90    
       -99.90      -99.90      -99.90      -99.90      -99.90      -99.90      -99.90      -99.90      -99.90      -99.90    
       -99.90      -99.90      -99.90      -99.90      -99.90      -99.90      -99.90      -99.90      -99.90      -99.90    
       -99.90      -99.90      -99.90      -99.90      -99.90      -99.90      -99.90      -99.90      -99.90      -99.90    
  40   -99.90      -99.90      -99.90      -99.90      -99.90      -99.90      -99.90      -99.90      -99.90      -99.90    
       -99.90      -99.90      -99.90      -99.90      -99.90      -99.90      -99.90      -99.90      -99.90      -99.90    
       -99.90      -99.90      -99.90      -99.90      -99.90      -99.90      -99.90      -99.90      -99.90      -99.90    
       -99.90      -99.90      -99.90      -99.90      -99.90      -99.90      -99.90      -99.90      -99.90      -99.90    
1
              HEAD IN LAYER   9 AT END OF TIME STEP   2 IN STRESS PERIOD    2
  ---------------------------------------------------------------------------

            1           2           3           4           5           6           7           8           9          10
           11          12          13          14          15          16          17          18          19          20
           21          22          23          24          25          26          27          28          29          30
           31          32          33          34          35          36          37          38          39          40
 ........................................................................................................................
   1    45.66       44.01       39.70       36.55       34.08       32.15       30.59       29.35       28.38       27.61    
        27.01       26.55       26.19       25.93       25.73       25.58       25.47       25.40      -99.90      -99.90    
       -99.90      -99.90      -99.90      -99.90      -99.90      -99.90      -99.90      -99.90      -99.90      -99.90    
       -99.90      -99.90      -99.90      -99.90      -99.90      -99.90      -99.90      -99.90      -99.90      -99.90    
   2    44.01       42.56       38.70       35.87       33.64       31.86       30.38       29.21       28.27       27.54    
        26.96       26.51       26.17       25.91       25.71       25.57       25.47       25.39      -99.90      -99.90    
       -99.90      -99.90      -99.90      -99.90      -99.90      -99.90      -99.90      -99.90      -99.90      -99.90    
       -99.90      -99.90      -99.90      -99.90      -99.90      -99.90      -99.90      -99.90      -99.90      -99.90    
   3    39.70       38.70       36.67       34.62       32.83       31.30       29.99       28.94       28.08       27.40    
        26.86       26.45       26.12       25.88       25.69       25.55       25.46       25.38      -99.90      -99.90    
       -99.90      -99.90      -99.90      -99.90      -99.90      -99.90      -99.90      -99.90      -99.90      -99.90    
       -99.90      -99.90      -99.90      -99.90      -99.90      -99.90      -99.90      -99.90      -99.90      -99.90    
   4    36.55       35.87       34.62       33.22       31.84       30.58       29.49       28.58       27.83       27.22    
        26.73       26.35       26.06       25.83       25.66       25.53       25.44       25.37      -99.90      -99.90    
       -99.90      -99.90      -99.90      -99.90      -99.90      -99.90      -99.90      -99.90      -99.90      -99.90    
       -99.90      -99.90      -99.90      -99.90      -99.90      -99.90      -99.90      -99.90      -99.90      -99.90    
   5    34.08       33.64       32.83       31.84       30.80       29.81       28.93       28.17       27.53       27.00    
        26.58       26.24       25.98       25.77       25.62       25.50       25.41       25.36      -99.90      -99.90    
       -99.90      -99.90      -99.90      -99.90      -99.90      -99.90      -99.90      -99.90      -99.90      -99.90    
       -99.90      -99.90      -99.90      -99.90      -99.90      -99.90      -99.90      -99.90      -99.90      -99.90    
   6    32.15       31.86       31.30       30.58       29.81       29.06       28.36       27.74       27.21       26.77    
        26.41       26.12       25.89       25.71       25.57       25.47       25.39      -99.90      -99.90      -99.90    
       -99.90      -99.90      -99.90      -99.90      -99.90      -99.90      -99.90      -99.90      -99.90      -99.90    
       -99.90      -99.90      -99.90      -99.90      -99.90      -99.90      -99.90      -99.90      -99.90      -99.90    
   7    30.59       30.38       29.99       29.49       28.93       28.36       27.82       27.33       26.90       26.54    
        26.24       25.99       25.80       25.64       25.53       25.44       25.38      -99.90      -99.90      -99.90    
       -99.90      -99.90      -99.90      -99.90      -99.90      -99.90      -99.90      -99.90      -99.90      -99.90    
       -99.90      -99.90      -99.90      -99.90      -99.90      -99.90      -99.90      -99.90      -99.90      -99.90    
   8    29.35       29.21       28.94       28.58       28.17       27.74       27.33       26.95       26.61       26.32    
        26.07       25.87       25.71       25.58       25.48       25.40       25.36      -99.90      -99.90      -99.90    
       -99.90      -99.90      -99.90      -99.90      -99.90      -99.90      -99.90      -99.90      -99.90      -99.90    
       -99.90      -99.90      -99.90      -99.90      -99.90      -99.90      -99.90      -99.90      -99.90      -99.90    
   9    28.38       28.27       28.08       27.83       27.53       27.21       26.90       26.61       26.34       26.11    
        25.92       25.75       25.62       25.52       25.44       25.38      -99.90      -99.90      -99.90      -99.90    
       -99.90      -99.90      -99.90      -99.90      -99.90      -99.90      -99.90      -99.90      -99.90      -99.90    
       -99.90      -99.90      -99.90      -99.90      -99.90      -99.90      -99.90      -99.90      -99.90      -99.90    
  10    27.61       27.54       27.40       27.22       27.00       26.77       26.54       26.32       26.11       25.93    
        25.78       25.65       25.55       25.46       25.39       25.35      -99.90      -99.90      -99.90      -99.90    
       -99.90      -99.90      -99.90      -99.90      -99.90      -99.90      -99.90      -99.90      -99.90      -99.90    
       -99.90      -99.90      -99.90      -99.90      -99.90      -99.90      -99.90      -99.90      -99.90      -99.90    
  11    27.01       26.96       26.86       26.73       26.58       26.41       26.24       26.07       25.92       25.78    
        25.66       25.56       25.48       25.41       25.37      -99.90      -99.90      -99.90      -99.90      -99.90    
       -99.90      -99.90      -99.90      -99.90      -99.90      -99.90      -99.90      -99.90      -99.90      -99.90    
       -99.90      -99.90      -99.90      -99.90      -99.90      -99.90      -99.90      -99.90      -99.90      -99.90    
  12    26.55       26.51       26.45       26.35       26.24       26.12       25.99       25.87       25.75       25.65    
        25.56       25.48       25.42       25.38      -99.90      -99.90      -99.90      -99.90      -99.90      -99.90    
       -99.90      -99.90      -99.90      -99.90      -99.90      -99.90      -99.90      -99.90      -99.90      -99.90    
       -99.90      -99.90      -99.90      -99.90      -99.90      -99.90      -99.90      -99.90      -99.90      -99.90    
  13    26.19       26.17       26.12       26.06       25.98       25.89       25.80       25.71       25.62       25.55    
        25.48       25.42       25.38      -99.90      -99.90      -99.90      -99.90      -99.90      -99.90      -99.90    
       -99.90      -99.90      -99.90      -99.90      -99.90      -99.90      -99.90      -99.90      -99.90      -99.90    
       -99.90      -99.90      -99.90      -99.90      -99.90      -99.90      -99.90      -99.90      -99.90      -99.90    
  14    25.93       25.91       25.88       25.83       25.77       25.71       25.64       25.58       25.52       25.46    
        25.41       25.38      -99.90      -99.90      -99.90      -99.90      -99.90      -99.90      -99.90      -99.90    
       -99.90      -99.90      -99.90      -99.90      -99.90      -99.90      -99.90      -99.90      -99.90      -99.90    
       -99.90      -99.90      -99.90      -99.90      -99.90      -99.90      -99.90      -99.90      -99.90      -99.90    
  15    25.73       25.71       25.69       25.66       25.62       25.57       25.53       25.48       25.44       25.39    
        25.37      -99.90      -99.90      -99.90      -99.90      -99.90      -99.90      -99.90      -99.90      -99.90    
       -99.90      -99.90      -99.90      -99.90      -99.90      -99.90      -99.90      -99.90      -99.90      -99.90    
       -99.90      -99.90      -99.90      -99.90      -99.90      -99.90      -99.90      -99.90      -99.90      -99.90    
  16    25.58       25.57       25.55       25.53       25.50       25.47       25.44       25.40       25.38       25.35    
       -99.90      -99.90      -99.90      -99.90      -99.90      -99.90      -99.90      -99.90      -99.90      -99.90    
       -99.90      -99.90      -99.90      -99.90      -99.90      -99.90      -99.90      -99.90      -99.90      -99.90    
       -99.90      -99.90      -99.90      -99.90      -99.90      -99.90      -99.90      -99.90      -99.90      -99.90    
  17    25.47       25.47       25.46       25.44       25.41       25.39       25.38       25.36      -99.90      -99.90    
       -99.90      -99.90      -99.90      -99.90      -99.90      -99.90      -99.90      -99.90      -99.90      -99.90    
       -99.90      -99.90      -99.90      -99.90      -99.90      -99.90      -99.90      -99.90      -99.90      -99.90    
       -99.90      -99.90      -99.90      -99.90      -99.90      -99.90      -99.90      -99.90      -99.90      -99.90    
  18    25.40       25.39       25.38       25.37       25.36      -99.90      -99.90      -99.90      -99.90      -99.90    
       -99.90      -99.90      -99.90      -99.90      -99.90      -99.90      -99.90      -99.90      -99.90      -99.90    
       -99.90      -99.90      -99.90      -99.90      -99.90      -99.90      -99.90      -99.90      -99.90      -99.90    
       -99.90      -99.90      -99.90      -99.90      -99.90      -99.90      -99.90      -99.90      -99.90      -99.90    
  19   -99.90      -99.90      -99.90      -99.90      -99.90      -99.90      -99.90      -99.90      -99.90      -99.90    
       -99.90      -99.90      -99.90      -99.90      -99.90      -99.90      -99.90      -99.90      -99.90      -99.90    
       -99.90      -99.90      -99.90      -99.90      -99.90      -99.90      -99.90      -99.90      -99.90      -99.90    
       -99.90      -99.90      -99.90      -99.90      -99.90      -99.90      -99.90      -99.90      -99.90      -99.90    
  20   -99.90      -99.90      -99.90      -99.90      -99.90      -99.90      -99.90      -99.90      -99.90      -99.90    
       -99.90      -99.90      -99.90      -99.90      -99.90      -99.90      -99.90      -99.90      -99.90      -99.90    
       -99.90      -99.90      -99.90      -99.90      -99.90      -99.90      -99.90      -99.90      -99.90      -99.90    
       -99.90      -99.90      -99.90      -99.90      -99.90      -99.90      -99.90      -99.90      -99.90      -99.90    
  21   -99.90      -99.90      -99.90      -99.90      -99.90      -99.90      -99.90      -99.90      -99.90      -99.90    
       -99.90      -99.90      -99.90      -99.90      -99.90      -99.90      -99.90      -99.90      -99.90      -99.90    
       -99.90      -99.90      -99.90      -99.90      -99.90      -99.90      -99.90      -99.90      -99.90      -99.90    
       -99.90      -99.90      -99.90      -99.90      -99.90      -99.90      -99.90      -99.90      -99.90      -99.90    
  22   -99.90      -99.90      -99.90      -99.90      -99.90      -99.90      -99.90      -99.90      -99.90      -99.90    
       -99.90      -99.90      -99.90      -99.90      -99.90      -99.90      -99.90      -99.90      -99.90      -99.90    
       -99.90      -99.90      -99.90      -99.90      -99.90      -99.90      -99.90      -99.90      -99.90      -99.90    
       -99.90      -99.90      -99.90      -99.90      -99.90      -99.90      -99.90      -99.90      -99.90      -99.90    
  23   -99.90      -99.90      -99.90      -99.90      -99.90      -99.90      -99.90      -99.90      -99.90      -99.90    
       -99.90      -99.90      -99.90      -99.90      -99.90      -99.90      -99.90      -99.90      -99.90      -99.90    
       -99.90      -99.90      -99.90      -99.90      -99.90      -99.90      -99.90      -99.90      -99.90      -99.90    
       -99.90      -99.90      -99.90      -99.90      -99.90      -99.90      -99.90      -99.90      -99.90      -99.90    
  24   -99.90      -99.90      -99.90      -99.90      -99.90      -99.90      -99.90      -99.90      -99.90      -99.90    
       -99.90      -99.90      -99.90      -99.90      -99.90      -99.90      -99.90      -99.90      -99.90      -99.90    
       -99.90      -99.90      -99.90      -99.90      -99.90      -99.90      -99.90      -99.90      -99.90      -99.90    
       -99.90      -99.90      -99.90      -99.90      -99.90      -99.90      -99.90      -99.90      -99.90      -99.90    
  25   -99.90      -99.90      -99.90      -99.90      -99.90      -99.90      -99.90      -99.90      -99.90      -99.90    
       -99.90      -99.90      -99.90      -99.90      -99.90      -99.90      -99.90      -99.90      -99.90      -99.90    
       -99.90      -99.90      -99.90      -99.90      -99.90      -99.90      -99.90      -99.90      -99.90      -99.90    
       -99.90      -99.90      -99.90      -99.90      -99.90      -99.90      -99.90      -99.90      -99.90      -99.90    
  26   -99.90      -99.90      -99.90      -99.90      -99.90      -99.90      -99.90      -99.90      -99.90      -99.90    
       -99.90      -99.90      -99.90      -99.90      -99.90      -99.90      -99.90      -99.90      -99.90      -99.90    
       -99.90      -99.90      -99.90      -99.90      -99.90      -99.90      -99.90      -99.90      -99.90      -99.90    
       -99.90      -99.90      -99.90      -99.90      -99.90      -99.90      -99.90      -99.90      -99.90      -99.90    
  27   -99.90      -99.90      -99.90      -99.90      -99.90      -99.90      -99.90      -99.90      -99.90      -99.90    
       -99.90      -99.90      -99.90      -99.90      -99.90      -99.90      -99.90      -99.90      -99.90      -99.90    
       -99.90      -99.90      -99.90      -99.90      -99.90      -99.90      -99.90      -99.90      -99.90      -99.90    
       -99.90      -99.90      -99.90      -99.90      -99.90      -99.90      -99.90      -99.90      -99.90      -99.90    
  28   -99.90      -99.90      -99.90      -99.90      -99.90      -99.90      -99.90      -99.90      -99.90      -99.90    
       -99.90      -99.90      -99.90      -99.90      -99.90      -99.90      -99.90      -99.90      -99.90      -99.90    
       -99.90      -99.90      -99.90      -99.90      -99.90      -99.90      -99.90      -99.90      -99.90      -99.90    
       -99.90      -99.90      -99.90      -99.90      -99.90      -99.90      -99.90      -99.90      -99.90      -99.90    
  29   -99.90      -99.90      -99.90      -99.90      -99.90      -99.90      -99.90      -99.90      -99.90      -99.90    
       -99.90      -99.90      -99.90      -99.90      -99.90      -99.90      -99.90      -99.90      -99.90      -99.90    
       -99.90      -99.90      -99.90      -99.90      -99.90      -99.90      -99.90      -99.90      -99.90      -99.90    
       -99.90      -99.90      -99.90      -99.90      -99.90      -99.90      -99.90      -99.90      -99.90      -99.90    
  30   -99.90      -99.90      -99.90      -99.90      -99.90      -99.90      -99.90      -99.90      -99.90      -99.90    
       -99.90      -99.90      -99.90      -99.90      -99.90      -99.90      -99.90      -99.90      -99.90      -99.90    
       -99.90      -99.90      -99.90      -99.90      -99.90      -99.90      -99.90      -99.90      -99.90      -99.90    
       -99.90      -99.90      -99.90      -99.90      -99.90      -99.90      -99.90      -99.90      -99.90      -99.90    
  31   -99.90      -99.90      -99.90      -99.90      -99.90      -99.90      -99.90      -99.90      -99.90      -99.90    
       -99.90      -99.90      -99.90      -99.90      -99.90      -99.90      -99.90      -99.90      -99.90      -99.90    
       -99.90      -99.90      -99.90      -99.90      -99.90      -99.90      -99.90      -99.90      -99.90      -99.90    
       -99.90      -99.90      -99.90      -99.90      -99.90      -99.90      -99.90      -99.90      -99.90      -99.90    
  32   -99.90      -99.90      -99.90      -99.90      -99.90      -99.90      -99.90      -99.90      -99.90      -99.90    
       -99.90      -99.90      -99.90      -99.90      -99.90      -99.90      -99.90      -99.90      -99.90      -99.90    
       -99.90      -99.90      -99.90      -99.90      -99.90      -99.90      -99.90      -99.90      -99.90      -99.90    
       -99.90      -99.90      -99.90      -99.90      -99.90      -99.90      -99.90      -99.90      -99.90      -99.90    
  33   -99.90      -99.90      -99.90      -99.90      -99.90      -99.90      -99.90      -99.90      -99.90      -99.90    
       -99.90      -99.90      -99.90      -99.90      -99.90      -99.90      -99.90      -99.90      -99.90      -99.90    
       -99.90      -99.90      -99.90      -99.90      -99.90      -99.90      -99.90      -99.90      -99.90      -99.90    
       -99.90      -99.90      -99.90      -99.90      -99.90      -99.90      -99.90      -99.90      -99.90      -99.90    
  34   -99.90      -99.90      -99.90      -99.90      -99.90      -99.90      -99.90      -99.90      -99.90      -99.90    
       -99.90      -99.90      -99.90      -99.90      -99.90      -99.90      -99.90      -99.90      -99.90      -99.90    
       -99.90      -99.90      -99.90      -99.90      -99.90      -99.90      -99.90      -99.90      -99.90      -99.90    
       -99.90      -99.90      -99.90      -99.90      -99.90      -99.90      -99.90      -99.90      -99.90      -99.90    
  35   -99.90      -99.90      -99.90      -99.90      -99.90      -99.90      -99.90      -99.90      -99.90      -99.90    
       -99.90      -99.90      -99.90      -99.90      -99.90      -99.90      -99.90      -99.90      -99.90      -99.90    
       -99.90      -99.90      -99.90      -99.90      -99.90      -99.90      -99.90      -99.90      -99.90      -99.90    
       -99.90      -99.90      -99.90      -99.90      -99.90      -99.90      -99.90      -99.90      -99.90      -99.90    
  36   -99.90      -99.90      -99.90      -99.90      -99.90      -99.90      -99.90      -99.90      -99.90      -99.90    
       -99.90      -99.90      -99.90      -99.90      -99.90      -99.90      -99.90      -99.90      -99.90      -99.90    
       -99.90      -99.90      -99.90      -99.90      -99.90      -99.90      -99.90      -99.90      -99.90      -99.90    
       -99.90      -99.90      -99.90      -99.90      -99.90      -99.90      -99.90      -99.90      -99.90      -99.90    
  37   -99.90      -99.90      -99.90      -99.90      -99.90      -99.90      -99.90      -99.90      -99.90      -99.90    
       -99.90      -99.90      -99.90      -99.90      -99.90      -99.90      -99.90      -99.90      -99.90      -99.90    
       -99.90      -99.90      -99.90      -99.90      -99.90      -99.90      -99.90      -99.90      -99.90      -99.90    
       -99.90      -99.90      -99.90      -99.90      -99.90      -99.90      -99.90      -99.90      -99.90      -99.90    
  38   -99.90      -99.90      -99.90      -99.90      -99.90      -99.90      -99.90      -99.90      -99.90      -99.90    
       -99.90      -99.90      -99.90      -99.90      -99.90      -99.90      -99.90      -99.90      -99.90      -99.90    
       -99.90      -99.90      -99.90      -99.90      -99.90      -99.90      -99.90      -99.90      -99.90      -99.90    
       -99.90      -99.90      -99.90      -99.90      -99.90      -99.90      -99.90      -99.90      -99.90      -99.90    
  39   -99.90      -99.90      -99.90      -99.90      -99.90      -99.90      -99.90      -99.90      -99.90      -99.90    
       -99.90      -99.90      -99.90      -99.90      -99.90      -99.90      -99.90      -99.90      -99.90      -99.90    
       -99.90      -99.90      -99.90      -99.90      -99.90      -99.90      -99.90      -99.90      -99.90      -99.90    
       -99.90      -99.90      -99.90      -99.90      -99.90      -99.90      -99.90      -99.90      -99.90      -99.90    
  40   -99.90      -99.90      -99.90      -99.90      -99.90      -99.90      -99.90      -99.90      -99.90      -99.90    
       -99.90      -99.90      -99.90      -99.90      -99.90      -99.90      -99.90      -99.90      -99.90      -99.90    
       -99.90      -99.90      -99.90      -99.90      -99.90      -99.90      -99.90      -99.90      -99.90      -99.90    
       -99.90      -99.90      -99.90      -99.90      -99.90      -99.90      -99.90      -99.90      -99.90      -99.90    
1
              HEAD IN LAYER  10 AT END OF TIME STEP   2 IN STRESS PERIOD    2
  ---------------------------------------------------------------------------

            1           2           3           4           5           6           7           8           9          10
           11          12          13          14          15          16          17          18          19          20
           21          22          23          24          25          26          27          28          29          30
           31          32          33          34          35          36          37          38          39          40
 ........................................................................................................................
   1    45.14       43.50       39.62       36.53       34.09       32.16       30.61       29.37       28.39       27.62    
        27.02       26.56       26.20       25.93       25.73       25.58       25.48       25.40       25.37       25.34    
        25.32       25.29       25.27       25.25       25.23       25.21       25.19       25.17       25.16       25.14    
        25.12       25.11       25.09       25.08       25.07       25.05       25.04       25.03       25.01       25.00    
   2    43.50       42.05       38.62       35.85       33.65       31.87       30.40       29.22       28.29       27.55    
        26.97       26.52       26.18       25.92       25.72       25.58       25.47       25.40       25.37       25.34    
        25.32       25.29       25.27       25.25       25.23       25.21       25.19       25.17       25.15       25.14    
        25.12       25.11       25.09       25.08       25.07       25.05       25.04       25.03       25.01       25.00    
   3    39.62       38.62       36.64       34.62       32.84       31.31       30.01       28.96       28.10       27.42    
        26.88       26.46       26.13       25.88       25.70       25.56       25.46       25.39       25.37       25.34    
        25.31       25.29       25.27       25.25       25.22       25.21       25.19       25.17       25.15       25.14    
        25.12       25.11       25.09       25.08       25.07       25.05       25.04       25.03       25.01       25.00    
   4    36.53       35.85       34.62       33.22       31.85       30.60       29.51       28.60       27.84       27.23    
        26.75       26.36       26.06       25.84       25.66       25.54       25.44       25.38       25.36       25.33    
        25.31       25.29       25.26       25.24       25.22       25.20       25.19       25.17       25.15       25.14    
        25.12       25.11       25.09       25.08       25.07       25.05       25.04       25.03       25.01       25.00    
   5    34.09       33.65       32.84       31.85       30.82       29.83       28.95       28.19       27.54       27.02    
        26.59       26.25       25.98       25.78       25.62       25.51       25.42       25.37       25.35       25.33    
        25.30       25.28       25.26       25.24       25.22       25.20       25.18       25.17       25.15       25.14    
        25.12       25.11       25.09       25.08       25.06       25.05       25.04       25.03       25.01       25.00    
   6    32.16       31.87       31.31       30.60       29.83       29.08       28.38       27.76       27.23       26.78    
        26.42       26.13       25.90       25.72       25.58       25.48       25.40       25.37       25.34       25.32    
        25.30       25.28       25.25       25.23       25.22       25.20       25.18       25.16       25.15       25.13    
        25.12       25.10       25.09       25.08       25.06       25.05       25.04       25.03       25.01       25.00    
   7    30.61       30.40       30.01       29.51       28.95       28.38       27.84       27.34       26.91       26.55    
        26.25       26.00       25.80       25.65       25.53       25.44       25.38       25.36       25.34       25.31    
        25.29       25.27       25.25       25.23       25.21       25.19       25.18       25.16       25.15       25.13    
        25.12       25.10       25.09       25.08       25.06       25.05       25.04       25.02       25.01       25.00    
   8    29.37       29.22       28.96       28.60       28.19       27.76       27.34       26.96       26.62       26.33    
        26.08       25.88       25.71       25.58       25.49       25.41       25.36       25.35       25.33       25.30    
        25.28       25.26       25.24       25.22       25.21       25.19       25.17       25.16       25.14       25.13    
        25.11       25.10       25.09       25.07       25.06       25.05       25.04       25.02       25.01       25.00    
   9    28.39       28.29       28.10       27.84       27.54       27.23       26.91       26.62       26.36       26.12    
        25.93       25.76       25.63       25.52       25.44       25.38       25.36       25.34       25.32       25.29    
        25.27       25.26       25.24       25.22       25.20       25.19       25.17       25.15       25.14       25.13    
        25.11       25.10       25.09       25.07       25.06       25.05       25.04       25.02       25.01       25.00    
  10    27.62       27.55       27.42       27.23       27.02       26.78       26.55       26.33       26.12       25.94    
        25.79       25.66       25.55       25.47       25.40       25.36       25.35       25.33       25.30       25.29    
        25.27       25.25       25.23       25.21       25.20       25.18       25.17       25.15       25.14       25.12    
        25.11       25.10       25.08       25.07       25.06       25.05       25.04       25.02       25.01       25.00    
  11    27.02       26.97       26.88       26.75       26.59       26.42       26.25       26.08       25.93       25.79    
        25.67       25.57       25.48       25.41       25.37       25.35       25.33       25.31       25.29       25.28    
        25.26       25.24       25.22       25.21       25.19       25.18       25.16       25.15       25.13       25.12    
        25.11       25.09       25.08       25.07       25.06       25.05       25.03       25.02       25.01       25.00    
  12    26.56       26.52       26.46       26.36       26.25       26.13       26.00       25.88       25.76       25.66    
        25.57       25.49       25.42       25.38       25.36       25.34       25.32       25.30       25.28       25.27    
        25.25       25.23       25.22       25.20       25.18       25.17       25.16       25.14       25.13       25.12    
        25.10       25.09       25.08       25.07       25.06       25.04       25.03       25.02       25.01       25.00    
  13    26.20       26.18       26.13       26.06       25.98       25.90       25.80       25.71       25.63       25.55    
        25.48       25.42       25.38       25.37       25.35       25.33       25.31       25.29       25.27       25.26    
        25.24       25.22       25.21       25.19       25.18       25.16       25.15       25.14       25.12       25.11    
        25.10       25.09       25.08       25.07       25.05       25.04       25.03       25.02       25.01       25.00    
  14    25.93       25.92       25.88       25.84       25.78       25.72       25.65       25.58       25.52       25.47    
        25.41       25.38       25.37       25.35       25.33       25.31       25.29       25.28       25.26       25.24    
        25.23       25.21       25.20       25.19       25.17       25.16       25.15       25.13       25.12       25.11    
        25.10       25.09       25.07       25.06       25.05       25.04       25.03       25.02       25.01       25.00    
  15    25.73       25.72       25.70       25.66       25.62       25.58       25.53       25.49       25.44       25.40    
        25.37       25.36       25.35       25.33       25.31       25.30       25.28       25.26       25.25       25.23    
        25.22       25.21       25.19       25.18       25.17       25.15       25.14       25.13       25.12       25.10    
        25.09       25.08       25.07       25.06       25.05       25.04       25.03       25.02       25.01       25.00    
  16    25.58       25.58       25.56       25.54       25.51       25.48       25.44       25.41       25.38       25.36    
        25.35       25.34       25.33       25.31       25.30       25.28       25.27       25.25       25.24       25.22    
        25.21       25.20       25.18       25.17       25.16       25.15       25.13       25.12       25.11       25.10    
        25.09       25.08       25.07       25.06       25.05       25.04       25.03       25.02       25.01       25.00    
  17    25.48       25.47       25.46       25.44       25.42       25.40       25.38       25.36       25.36       25.35    
        25.33       25.32       25.31       25.29       25.28       25.27       25.25       25.24       25.23       25.21    
        25.20       25.19       25.18       25.16       25.15       25.14       25.13       25.12       25.11       25.10    
        25.09       25.08       25.07       25.06       25.05       25.04       25.03       25.02       25.01       25.00    
  18    25.40       25.40       25.39       25.38       25.37       25.37       25.36       25.35       25.34       25.33    
        25.31       25.30       25.29       25.28       25.26       25.25       25.24       25.23       25.21       25.20    
        25.19       25.18       25.17       25.16       25.14       25.13       25.12       25.11       25.10       25.09    
        25.08       25.07       25.06       25.05       25.04       25.04       25.03       25.02       25.01       25.00    
  19    25.37       25.37       25.37       25.36       25.35       25.34       25.34       25.33       25.32       25.30    
        25.29       25.28       25.27       25.26       25.25       25.24       25.23       25.21       25.20       25.19    
        25.18       25.17       25.16       25.15       25.14       25.13       25.12       25.11       25.10       25.09    
        25.08       25.07       25.06       25.05       25.04       25.03       25.03       25.02       25.01       25.00    
  20    25.34       25.34       25.34       25.33       25.33       25.32       25.31       25.30       25.29       25.29    
        25.28       25.27       25.26       25.24       25.23       25.22       25.21       25.20       25.19       25.18    
        25.17       25.16       25.15       25.14       25.13       25.12       25.11       25.10       25.09       25.08    
        25.08       25.07       25.06       25.05       25.04       25.03       25.02       25.02       25.01       25.00    
  21    25.32       25.32       25.31       25.31       25.30       25.30       25.29       25.28       25.27       25.27    
        25.26       25.25       25.24       25.23       25.22       25.21       25.20       25.19       25.18       25.17    
        25.16       25.15       25.14       25.13       25.12       25.11       25.11       25.10       25.09       25.08    
        25.07       25.06       25.05       25.05       25.04       25.03       25.02       25.02       25.01       25.00    
  22    25.29       25.29       25.29       25.29       25.28       25.28       25.27       25.26       25.26       25.25    
        25.24       25.23       25.22       25.21       25.21       25.20       25.19       25.18       25.17       25.16    
        25.15       25.14       25.13       25.12       25.12       25.11       25.10       25.09       25.08       25.08    
        25.07       25.06       25.05       25.04       25.04       25.03       25.02       25.01       25.01       25.00    
  23    25.27       25.27       25.27       25.26       25.26       25.25       25.25       25.24       25.24       25.23    
        25.22       25.22       25.21       25.20       25.19       25.18       25.18       25.17       25.16       25.15    
        25.14       25.13       25.13       25.12       25.11       25.10       25.09       25.09       25.08       25.07    
        25.06       25.06       25.05       25.04       25.03       25.03       25.02       25.01       25.01       25.00    
  24    25.25       25.25       25.25       25.24       25.24       25.23       25.23       25.22       25.22       25.21    
        25.21       25.20       25.19       25.19       25.18       25.17       25.16       25.16       25.15       25.14    
        25.13       25.12       25.12       25.11       25.10       25.09       25.09       25.08       25.07       25.07    
        25.06       25.05       25.05       25.04       25.03       25.03       25.02       25.01       25.01       25.00    
  25    25.23       25.23       25.22       25.22       25.22       25.22       25.21       25.21       25.20       25.20    
        25.19       25.18       25.18       25.17       25.17       25.16       25.15       25.14       25.14       25.13    
        25.12       25.12       25.11       25.10       25.10       25.09       25.08       25.08       25.07       25.06    
        25.06       25.05       25.04       25.04       25.03       25.02       25.02       25.01       25.01       25.00    
  26    25.21       25.21       25.21       25.20       25.20       25.20       25.19       25.19       25.19       25.18    
        25.18       25.17       25.16       25.16       25.15       25.15       25.14       25.13       25.13       25.12    
        25.11       25.11       25.10       25.09       25.09       25.08       25.08       25.07       25.06       25.06    
        25.05       25.05       25.04       25.03       25.03       25.02       25.02       25.01       25.01       25.00    
  27    25.19       25.19       25.19       25.19       25.18       25.18       25.18       25.17       25.17       25.17    
        25.16       25.16       25.15       25.15       25.14       25.13       25.13       25.12       25.12       25.11    
        25.11       25.10       25.09       25.09       25.08       25.08       25.07       25.06       25.06       25.05    
        25.05       25.04       25.04       25.03       25.03       25.02       25.02       25.01       25.01       25.00    
  28    25.17       25.17       25.17       25.17       25.17       25.16       25.16       25.16       25.15       25.15    
        25.15       25.14       25.14       25.13       25.13       25.12       25.12       25.11       25.11       25.10    
        25.10       25.09       25.09       25.08       25.08       25.07       25.06       25.06       25.05       25.05    
        25.04       25.04       25.03       25.03       25.02       25.02       25.01       25.01       25.00       25.00    
  29    25.16       25.15       25.15       25.15       25.15       25.15       25.15       25.14       25.14       25.14    
        25.13       25.13       25.12       25.12       25.12       25.11       25.11       25.10       25.10       25.09    
        25.09       25.08       25.08       25.07       25.07       25.06       25.06       25.05       25.05       25.05    
        25.04       25.04       25.03       25.03       25.02       25.02       25.01       25.01       25.00       25.00    
  30    25.14       25.14       25.14       25.14       25.14       25.13       25.13       25.13       25.13       25.12    
        25.12       25.12       25.11       25.11       25.10       25.10       25.10       25.09       25.09       25.08    
        25.08       25.08       25.07       25.07       25.06       25.06       25.05       25.05       25.05       25.04    
        25.04       25.03       25.03       25.02       25.02       25.02       25.01       25.01       25.00       25.00    
  31    25.12       25.12       25.12       25.12       25.12       25.12       25.12       25.11       25.11       25.11    
        25.11       25.10       25.10       25.10       25.09       25.09       25.09       25.08       25.08       25.08    
        25.07       25.07       25.06       25.06       25.06       25.05       25.05       25.04       25.04       25.04    
        25.03       25.03       25.03       25.02       25.02       25.01       25.01       25.01       25.00       25.00    
  32    25.11       25.11       25.11       25.11       25.11       25.10       25.10       25.10       25.10       25.10    
        25.09       25.09       25.09       25.09       25.08       25.08       25.08       25.07       25.07       25.07    
        25.06       25.06       25.06       25.05       25.05       25.05       25.04       25.04       25.04       25.03    
        25.03       25.03       25.02       25.02       25.02       25.01       25.01       25.01       25.00       25.00    
  33    25.09       25.09       25.09       25.09       25.09       25.09       25.09       25.09       25.09       25.08    
        25.08       25.08       25.08       25.07       25.07       25.07       25.07       25.06       25.06       25.06    
        25.05       25.05       25.05       25.05       25.04       25.04       25.04       25.03       25.03       25.03    
        25.03       25.02       25.02       25.02       25.01       25.01       25.01       25.01       25.00       25.00    
  34    25.08       25.08       25.08       25.08       25.08       25.08       25.08       25.07       25.07       25.07    
        25.07       25.07       25.07       25.06       25.06       25.06       25.06       25.05       25.05       25.05    
        25.05       25.04       25.04       25.04       25.04       25.03       25.03       25.03       25.03       25.02    
        25.02       25.02       25.02       25.01       25.01       25.01       25.01       25.00       25.00       25.00    
  35    25.07       25.07       25.07       25.07       25.06       25.06       25.06       25.06       25.06       25.06    
        25.06       25.06       25.05       25.05       25.05       25.05       25.05       25.04       25.04       25.04    
        25.04       25.04       25.03       25.03       25.03       25.03       25.03       25.02       25.02       25.02    
        25.02       25.02       25.01       25.01       25.01       25.01       25.01       25.00       25.00       25.00    
  36    25.05       25.05       25.05       25.05       25.05       25.05       25.05       25.05       25.05       25.05    
        25.05       25.04       25.04       25.04       25.04       25.04       25.04       25.04       25.03       25.03    
        25.03       25.03       25.03       25.03       25.02       25.02       25.02       25.02       25.02       25.02    
        25.01       25.01       25.01       25.01       25.01       25.01       25.00       25.00       25.00       25.00    
  37    25.04       25.04       25.04       25.04       25.04       25.04       25.04       25.04       25.04       25.04    
        25.03       25.03       25.03       25.03       25.03       25.03       25.03       25.03       25.03       25.02    
        25.02       25.02       25.02       25.02       25.02       25.02       25.02       25.01       25.01       25.01    
        25.01       25.01       25.01       25.01       25.01       25.00       25.00       25.00       25.00       25.00    
  38    25.03       25.03       25.03       25.03       25.03       25.03       25.02       25.02       25.02       25.02    
        25.02       25.02       25.02       25.02       25.02       25.02       25.02       25.02       25.02       25.02    
        25.02       25.01       25.01       25.01       25.01       25.01       25.01       25.01       25.01       25.01    
        25.01       25.01       25.01       25.00       25.00       25.00       25.00       25.00       25.00       25.00    
  39    25.01       25.01       25.01       25.01       25.01       25.01       25.01       25.01       25.01       25.01    
        25.01       25.01       25.01       25.01       25.01       25.01       25.01       25.01       25.01       25.01    
        25.01       25.01       25.01       25.01       25.01       25.01       25.01       25.00       25.00       25.00    
        25.00       25.00       25.00       25.00       25.00       25.00       25.00       25.00       25.00       25.00    
  40    25.00       25.00       25.00       25.00       25.00       25.00       25.00       25.00       25.00       25.00    
        25.00       25.00       25.00       25.00       25.00       25.00       25.00       25.00       25.00       25.00    
        25.00       25.00       25.00       25.00       25.00       25.00       25.00       25.00       25.00       25.00    
        25.00       25.00       25.00       25.00       25.00       25.00       25.00       25.00       25.00       25.00    
1
              HEAD IN LAYER  11 AT END OF TIME STEP   2 IN STRESS PERIOD    2
  ---------------------------------------------------------------------------

            1           2           3           4           5           6           7           8           9          10
           11          12          13          14          15          16          17          18          19          20
           21          22          23          24          25          26          27          28          29          30
           31          32          33          34          35          36          37          38          39          40
 ........................................................................................................................
   1    44.73       43.10       39.53       36.51       34.09       32.17       30.62       29.38       28.41       27.64    
        27.03       26.57       26.21       25.94       25.74       25.59       25.48       25.41       25.37       25.34    
        25.32       25.29       25.27       25.25       25.23       25.21       25.19       25.17       25.16       25.14    
        25.12       25.11       25.09       25.08       25.07       25.05       25.04       25.03       25.01       25.00    
   2    43.10       41.67       38.54       35.84       33.65       31.88       30.41       29.24       28.30       27.56    
        26.98       26.53       26.19       25.92       25.72       25.58       25.47       25.40       25.37       25.34    
        25.32       25.29       25.27       25.25       25.23       25.21       25.19       25.17       25.15       25.14    
        25.12       25.11       25.09       25.08       25.07       25.05       25.04       25.03       25.01       25.00    
   3    39.53       38.54       36.62       34.62       32.85       31.32       30.02       28.97       28.11       27.43    
        26.89       26.46       26.14       25.89       25.70       25.56       25.46       25.39       25.37       25.34    
        25.31       25.29       25.27       25.25       25.22       25.21       25.19       25.17       25.15       25.14    
        25.12       25.11       25.09       25.08       25.07       25.05       25.04       25.03       25.01       25.00    
   4    36.51       35.84       34.62       33.23       31.86       30.61       29.52       28.61       27.86       27.24    
        26.76       26.37       26.07       25.84       25.67       25.54       25.45       25.38       25.36       25.33    
        25.31       25.29       25.26       25.24       25.22       25.20       25.19       25.17       25.15       25.14    
        25.12       25.11       25.09       25.08       25.07       25.05       25.04       25.03       25.01       25.00    
   5    34.09       33.65       32.85       31.86       30.83       29.84       28.96       28.20       27.56       27.03    
        26.60       26.26       25.99       25.78       25.63       25.51       25.42       25.37       25.35       25.33    
        25.30       25.28       25.26       25.24       25.22       25.20       25.18       25.17       25.15       25.14    
        25.12       25.11       25.09       25.08       25.06       25.05       25.04       25.03       25.01       25.00    
   6    32.17       31.88       31.32       30.61       29.84       29.09       28.39       27.77       27.24       26.79    
        26.43       26.13       25.90       25.72       25.58       25.48       25.41       25.37       25.34       25.32    
        25.30       25.28       25.25       25.23       25.22       25.20       25.18       25.16       25.15       25.13    
        25.12       25.10       25.09       25.08       25.06       25.05       25.04       25.03       25.01       25.00    
   7    30.62       30.41       30.02       29.52       28.96       28.39       27.85       27.36       26.92       26.56    
        26.25       26.01       25.81       25.65       25.54       25.45       25.39       25.36       25.34       25.31    
        25.29       25.27       25.25       25.23       25.21       25.19       25.18       25.16       25.15       25.13    
        25.12       25.10       25.09       25.08       25.06       25.05       25.04       25.02       25.01       25.00    
   8    29.38       29.24       28.97       28.61       28.20       27.77       27.36       26.97       26.63       26.33    
        26.09       25.88       25.72       25.59       25.49       25.41       25.37       25.35       25.33       25.30    
        25.28       25.26       25.24       25.22       25.21       25.19       25.17       25.16       25.14       25.13    
        25.11       25.10       25.09       25.07       25.06       25.05       25.04       25.02       25.01       25.00    
   9    28.41       28.30       28.11       27.86       27.56       27.24       26.92       26.63       26.36       26.13    
        25.93       25.77       25.63       25.53       25.45       25.39       25.36       25.34       25.32       25.29    
        25.27       25.26       25.24       25.22       25.20       25.19       25.17       25.15       25.14       25.13    
        25.11       25.10       25.09       25.07       25.06       25.05       25.04       25.02       25.01       25.00    
  10    27.64       27.56       27.43       27.24       27.03       26.79       26.56       26.33       26.13       25.95    
        25.79       25.66       25.56       25.47       25.40       25.36       25.35       25.33       25.30       25.29    
        25.27       25.25       25.23       25.21       25.20       25.18       25.17       25.15       25.14       25.12    
        25.11       25.10       25.08       25.07       25.06       25.05       25.04       25.02       25.01       25.00    
  11    27.03       26.98       26.89       26.76       26.60       26.43       26.25       26.09       25.93       25.79    
        25.67       25.57       25.49       25.42       25.38       25.35       25.33       25.31       25.29       25.28    
        25.26       25.24       25.22       25.21       25.19       25.18       25.16       25.15       25.13       25.12    
        25.11       25.09       25.08       25.07       25.06       25.05       25.03       25.02       25.01       25.00    
  12    26.57       26.53       26.46       26.37       26.26       26.13       26.01       25.88       25.77       25.66    
        25.57       25.49       25.43       25.38       25.36       25.34       25.32       25.30       25.28       25.27    
        25.25       25.23       25.22       25.20       25.18       25.17       25.16       25.14       25.13       25.12    
        25.10       25.09       25.08       25.07       25.06       25.04       25.03       25.02       25.01       25.00    
  13    26.21       26.19       26.14       26.07       25.99       25.90       25.81       25.72       25.63       25.56    
        25.49       25.43       25.39       25.37       25.35       25.33       25.31       25.29       25.27       25.26    
        25.24       25.22       25.21       25.19       25.18       25.16       25.15       25.14       25.12       25.11    
        25.10       25.09       25.08       25.07       25.05       25.04       25.03       25.02       25.01       25.00    
  14    25.94       25.92       25.89       25.84       25.78       25.72       25.65       25.59       25.53       25.47    
        25.42       25.38       25.37       25.35       25.33       25.31       25.29       25.28       25.26       25.24    
        25.23       25.21       25.20       25.19       25.17       25.16       25.15       25.13       25.12       25.11    
        25.10       25.09       25.07       25.06       25.05       25.04       25.03       25.02       25.01       25.00    
  15    25.74       25.72       25.70       25.67       25.63       25.58       25.54       25.49       25.45       25.40    
        25.38       25.36       25.35       25.33       25.31       25.30       25.28       25.26       25.25       25.23    
        25.22       25.21       25.19       25.18       25.17       25.15       25.14       25.13       25.12       25.10    
        25.09       25.08       25.07       25.06       25.05       25.04       25.03       25.02       25.01       25.00    
  16    25.59       25.58       25.56       25.54       25.51       25.48       25.45       25.41       25.39       25.36    
        25.35       25.34       25.33       25.31       25.30       25.28       25.27       25.25       25.24       25.22    
        25.21       25.20       25.18       25.17       25.16       25.15       25.13       25.12       25.11       25.10    
        25.09       25.08       25.07       25.06       25.05       25.04       25.03       25.02       25.01       25.00    
  17    25.48       25.47       25.46       25.45       25.42       25.41       25.39       25.37       25.36       25.35    
        25.33       25.32       25.31       25.29       25.28       25.27       25.25       25.24       25.23       25.21    
        25.20       25.19       25.18       25.16       25.15       25.14       25.13       25.12       25.11       25.10    
        25.09       25.08       25.07       25.06       25.05       25.04       25.03       25.02       25.01       25.00    
  18    25.41       25.40       25.39       25.38       25.37       25.37       25.36       25.35       25.34       25.33    
        25.31       25.30       25.29       25.28       25.26       25.25       25.24       25.23       25.21       25.20    
        25.19       25.18       25.17       25.16       25.14       25.13       25.12       25.11       25.10       25.09    
        25.08       25.07       25.06       25.05       25.04       25.04       25.03       25.02       25.01       25.00    
  19    25.37       25.37       25.37       25.36       25.35       25.34       25.34       25.33       25.32       25.30    
        25.29       25.28       25.27       25.26       25.25       25.24       25.23       25.21       25.20       25.19    
        25.18       25.17       25.16       25.15       25.14       25.13       25.12       25.11       25.10       25.09    
        25.08       25.07       25.06       25.05       25.04       25.03       25.03       25.02       25.01       25.00    
  20    25.34       25.34       25.34       25.33       25.33       25.32       25.31       25.30       25.29       25.29    
        25.28       25.27       25.26       25.24       25.23       25.22       25.21       25.20       25.19       25.18    
        25.17       25.16       25.15       25.14       25.13       25.12       25.11       25.10       25.09       25.08    
        25.08       25.07       25.06       25.05       25.04       25.03       25.02       25.02       25.01       25.00    
  21    25.32       25.32       25.31       25.31       25.30       25.30       25.29       25.28       25.27       25.27    
        25.26       25.25       25.24       25.23       25.22       25.21       25.20       25.19       25.18       25.17    
        25.16       25.15       25.14       25.13       25.12       25.11       25.11       25.10       25.09       25.08    
        25.07       25.06       25.05       25.05       25.04       25.03       25.02       25.02       25.01       25.00    
  22    25.29       25.29       25.29       25.29       25.28       25.28       25.27       25.26       25.26       25.25    
        25.24       25.23       25.22       25.21       25.21       25.20       25.19       25.18       25.17       25.16    
        25.15       25.14       25.13       25.12       25.12       25.11       25.10       25.09       25.08       25.08    
        25.07       25.06       25.05       25.04       25.04       25.03       25.02       25.01       25.01       25.00    
  23    25.27       25.27       25.27       25.26       25.26       25.25       25.25       25.24       25.24       25.23    
        25.22       25.22       25.21       25.20       25.19       25.18       25.18       25.17       25.16       25.15    
        25.14       25.13       25.13       25.12       25.11       25.10       25.09       25.09       25.08       25.07    
        25.06       25.06       25.05       25.04       25.03       25.03       25.02       25.01       25.01       25.00    
  24    25.25       25.25       25.25       25.24       25.24       25.23       25.23       25.22       25.22       25.21    
        25.21       25.20       25.19       25.19       25.18       25.17       25.16       25.16       25.15       25.14    
        25.13       25.12       25.12       25.11       25.10       25.09       25.09       25.08       25.07       25.07    
        25.06       25.05       25.05       25.04       25.03       25.03       25.02       25.01       25.01       25.00    
  25    25.23       25.23       25.22       25.22       25.22       25.22       25.21       25.21       25.20       25.20    
        25.19       25.18       25.18       25.17       25.17       25.16       25.15       25.14       25.14       25.13    
        25.12       25.12       25.11       25.10       25.10       25.09       25.08       25.08       25.07       25.06    
        25.06       25.05       25.04       25.04       25.03       25.02       25.02       25.01       25.01       25.00    
  26    25.21       25.21       25.21       25.20       25.20       25.20       25.19       25.19       25.19       25.18    
        25.18       25.17       25.16       25.16       25.15       25.15       25.14       25.13       25.13       25.12    
        25.11       25.11       25.10       25.09       25.09       25.08       25.08       25.07       25.06       25.06    
        25.05       25.05       25.04       25.03       25.03       25.02       25.02       25.01       25.01       25.00    
  27    25.19       25.19       25.19       25.19       25.18       25.18       25.18       25.17       25.17       25.17    
        25.16       25.16       25.15       25.15       25.14       25.13       25.13       25.12       25.12       25.11    
        25.11       25.10       25.09       25.09       25.08       25.08       25.07       25.06       25.06       25.05    
        25.05       25.04       25.04       25.03       25.03       25.02       25.02       25.01       25.01       25.00    
  28    25.17       25.17       25.17       25.17       25.17       25.16       25.16       25.16       25.15       25.15    
        25.15       25.14       25.14       25.13       25.13       25.12       25.12       25.11       25.11       25.10    
        25.10       25.09       25.09       25.08       25.08       25.07       25.06       25.06       25.05       25.05    
        25.04       25.04       25.03       25.03       25.02       25.02       25.01       25.01       25.00       25.00    
  29    25.16       25.15       25.15       25.15       25.15       25.15       25.15       25.14       25.14       25.14    
        25.13       25.13       25.12       25.12       25.12       25.11       25.11       25.10       25.10       25.09    
        25.09       25.08       25.08       25.07       25.07       25.06       25.06       25.05       25.05       25.05    
        25.04       25.04       25.03       25.03       25.02       25.02       25.01       25.01       25.00       25.00    
  30    25.14       25.14       25.14       25.14       25.14       25.13       25.13       25.13       25.13       25.12    
        25.12       25.12       25.11       25.11       25.10       25.10       25.10       25.09       25.09       25.08    
        25.08       25.08       25.07       25.07       25.06       25.06       25.05       25.05       25.05       25.04    
        25.04       25.03       25.03       25.02       25.02       25.02       25.01       25.01       25.00       25.00    
  31    25.12       25.12       25.12       25.12       25.12       25.12       25.12       25.11       25.11       25.11    
        25.11       25.10       25.10       25.10       25.09       25.09       25.09       25.08       25.08       25.08    
        25.07       25.07       25.06       25.06       25.06       25.05       25.05       25.04       25.04       25.04    
        25.03       25.03       25.03       25.02       25.02       25.01       25.01       25.01       25.00       25.00    
  32    25.11       25.11       25.11       25.11       25.11       25.10       25.10       25.10       25.10       25.10    
        25.09       25.09       25.09       25.09       25.08       25.08       25.08       25.07       25.07       25.07    
        25.06       25.06       25.06       25.05       25.05       25.05       25.04       25.04       25.04       25.03    
        25.03       25.03       25.02       25.02       25.02       25.01       25.01       25.01       25.00       25.00    
  33    25.09       25.09       25.09       25.09       25.09       25.09       25.09       25.09       25.09       25.08    
        25.08       25.08       25.08       25.07       25.07       25.07       25.07       25.06       25.06       25.06    
        25.05       25.05       25.05       25.05       25.04       25.04       25.04       25.03       25.03       25.03    
        25.03       25.02       25.02       25.02       25.01       25.01       25.01       25.01       25.00       25.00    
  34    25.08       25.08       25.08       25.08       25.08       25.08       25.08       25.07       25.07       25.07    
        25.07       25.07       25.07       25.06       25.06       25.06       25.06       25.05       25.05       25.05    
        25.05       25.04       25.04       25.04       25.04       25.03       25.03       25.03       25.03       25.02    
        25.02       25.02       25.02       25.01       25.01       25.01       25.01       25.00       25.00       25.00    
  35    25.07       25.07       25.07       25.07       25.06       25.06       25.06       25.06       25.06       25.06    
        25.06       25.06       25.05       25.05       25.05       25.05       25.05       25.04       25.04       25.04    
        25.04       25.04       25.03       25.03       25.03       25.03       25.03       25.02       25.02       25.02    
        25.02       25.02       25.01       25.01       25.01       25.01       25.01       25.00       25.00       25.00    
  36    25.05       25.05       25.05       25.05       25.05       25.05       25.05       25.05       25.05       25.05    
        25.05       25.04       25.04       25.04       25.04       25.04       25.04       25.04       25.03       25.03    
        25.03       25.03       25.03       25.03       25.02       25.02       25.02       25.02       25.02       25.02    
        25.01       25.01       25.01       25.01       25.01       25.01       25.00       25.00       25.00       25.00    
  37    25.04       25.04       25.04       25.04       25.04       25.04       25.04       25.04       25.04       25.04    
        25.03       25.03       25.03       25.03       25.03       25.03       25.03       25.03       25.03       25.02    
        25.02       25.02       25.02       25.02       25.02       25.02       25.02       25.01       25.01       25.01    
        25.01       25.01       25.01       25.01       25.01       25.00       25.00       25.00       25.00       25.00    
  38    25.03       25.03       25.03       25.03       25.03       25.03       25.02       25.02       25.02       25.02    
        25.02       25.02       25.02       25.02       25.02       25.02       25.02       25.02       25.02       25.02    
        25.02       25.01       25.01       25.01       25.01       25.01       25.01       25.01       25.01       25.01    
        25.01       25.01       25.01       25.00       25.00       25.00       25.00       25.00       25.00       25.00    
  39    25.01       25.01       25.01       25.01       25.01       25.01       25.01       25.01       25.01       25.01    
        25.01       25.01       25.01       25.01       25.01       25.01       25.01       25.01       25.01       25.01    
        25.01       25.01       25.01       25.01       25.01       25.01       25.01       25.00       25.00       25.00    
        25.00       25.00       25.00       25.00       25.00       25.00       25.00       25.00       25.00       25.00    
  40    25.00       25.00       25.00       25.00       25.00       25.00       25.00       25.00       25.00       25.00    
        25.00       25.00       25.00       25.00       25.00       25.00       25.00       25.00       25.00       25.00    
        25.00       25.00       25.00       25.00       25.00       25.00       25.00       25.00       25.00       25.00    
        25.00       25.00       25.00       25.00       25.00       25.00       25.00       25.00       25.00       25.00    
1
              HEAD IN LAYER  12 AT END OF TIME STEP   2 IN STRESS PERIOD    2
  ---------------------------------------------------------------------------

            1           2           3           4           5           6           7           8           9          10
           11          12          13          14          15          16          17          18          19          20
           21          22          23          24          25          26          27          28          29          30
           31          32          33          34          35          36          37          38          39          40
 ........................................................................................................................
   1    44.42       42.81       39.47       36.50       34.10       32.18       30.63       29.39       28.42       27.64    
        27.04       26.57       26.22       25.94       25.74       25.59       25.48       25.41       25.37       25.34    
        25.32       25.29       25.27       25.25       25.23       25.21       25.19       25.17       25.16       25.14    
        25.12       25.11       25.09       25.08       25.07       25.05       25.04       25.03       25.01       25.00    
   2    42.81       41.40       38.47       35.83       33.66       31.88       30.42       29.25       28.31       27.57    
        26.99       26.54       26.19       25.93       25.73       25.58       25.48       25.40       25.37       25.34    
        25.32       25.29       25.27       25.25       25.23       25.21       25.19       25.17       25.15       25.14    
        25.12       25.11       25.09       25.08       25.07       25.05       25.04       25.03       25.01       25.00    
   3    39.47       38.47       36.60       34.62       32.85       31.33       30.03       28.98       28.12       27.44    
        26.90       26.47       26.14       25.89       25.70       25.57       25.47       25.40       25.37       25.34    
        25.31       25.29       25.27       25.25       25.22       25.21       25.19       25.17       25.15       25.14    
        25.12       25.11       25.09       25.08       25.07       25.05       25.04       25.03       25.01       25.00    
   4    36.50       35.83       34.62       33.23       31.87       30.62       29.53       28.62       27.86       27.25    
        26.76       26.38       26.08       25.85       25.67       25.54       25.45       25.39       25.36       25.33    
        25.31       25.29       25.26       25.24       25.22       25.20       25.19       25.17       25.15       25.14    
        25.12       25.11       25.09       25.08       25.07       25.05       25.04       25.03       25.01       25.00    
   5    34.10       33.66       32.85       31.87       30.84       29.85       28.97       28.21       27.56       27.03    
        26.60       26.26       26.00       25.79       25.63       25.51       25.43       25.38       25.35       25.33    
        25.30       25.28       25.26       25.24       25.22       25.20       25.18       25.17       25.15       25.14    
        25.12       25.11       25.09       25.08       25.06       25.05       25.04       25.03       25.01       25.00    
   6    32.18       31.88       31.33       30.62       29.85       29.10       28.40       27.78       27.25       26.80    
        26.43       26.14       25.91       25.72       25.59       25.48       25.41       25.37       25.34       25.32    
        25.30       25.28       25.25       25.23       25.22       25.20       25.18       25.16       25.15       25.13    
        25.12       25.10       25.09       25.08       25.06       25.05       25.04       25.03       25.01       25.00    
   7    30.63       30.42       30.03       29.53       28.97       28.40       27.86       27.36       26.93       26.57    
        26.26       26.01       25.81       25.66       25.54       25.45       25.39       25.36       25.34       25.31    
        25.29       25.27       25.25       25.23       25.21       25.19       25.18       25.16       25.15       25.13    
        25.12       25.10       25.09       25.08       25.06       25.05       25.04       25.02       25.01       25.00    
   8    29.39       29.25       28.98       28.62       28.21       27.78       27.36       26.98       26.64       26.34    
        26.09       25.89       25.72       25.59       25.49       25.42       25.37       25.35       25.33       25.30    
        25.28       25.26       25.24       25.22       25.21       25.19       25.17       25.16       25.14       25.13    
        25.11       25.10       25.09       25.07       25.06       25.05       25.04       25.02       25.01       25.00    
   9    28.42       28.31       28.12       27.86       27.56       27.25       26.93       26.64       26.37       26.14    
        25.94       25.77       25.64       25.53       25.45       25.39       25.36       25.34       25.32       25.29    
        25.27       25.26       25.24       25.22       25.20       25.19       25.17       25.15       25.14       25.13    
        25.11       25.10       25.09       25.07       25.06       25.05       25.04       25.02       25.01       25.00    
  10    27.64       27.57       27.44       27.25       27.03       26.80       26.57       26.34       26.14       25.95    
        25.80       25.67       25.56       25.47       25.41       25.37       25.35       25.33       25.30       25.29    
        25.27       25.25       25.23       25.21       25.20       25.18       25.17       25.15       25.14       25.12    
        25.11       25.10       25.08       25.07       25.06       25.05       25.04       25.02       25.01       25.00    
  11    27.04       26.99       26.90       26.76       26.60       26.43       26.26       26.09       25.94       25.80    
        25.68       25.57       25.49       25.42       25.38       25.35       25.33       25.31       25.29       25.28    
        25.26       25.24       25.22       25.21       25.19       25.18       25.16       25.15       25.13       25.12    
        25.11       25.09       25.08       25.07       25.06       25.05       25.03       25.02       25.01       25.00    
  12    26.57       26.54       26.47       26.38       26.26       26.14       26.01       25.89       25.77       25.67    
        25.57       25.50       25.43       25.39       25.36       25.34       25.32       25.30       25.28       25.27    
        25.25       25.23       25.22       25.20       25.18       25.17       25.16       25.14       25.13       25.12    
        25.10       25.09       25.08       25.07       25.06       25.04       25.03       25.02       25.01       25.00    
  13    26.22       26.19       26.14       26.08       26.00       25.91       25.81       25.72       25.64       25.56    
        25.49       25.43       25.39       25.37       25.35       25.33       25.31       25.29       25.27       25.26    
        25.24       25.22       25.21       25.19       25.18       25.16       25.15       25.14       25.12       25.11    
        25.10       25.09       25.08       25.07       25.05       25.04       25.03       25.02       25.01       25.00    
  14    25.94       25.93       25.89       25.85       25.79       25.72       25.66       25.59       25.53       25.47    
        25.42       25.39       25.37       25.35       25.33       25.31       25.29       25.28       25.26       25.24    
        25.23       25.21       25.20       25.19       25.17       25.16       25.15       25.13       25.12       25.11    
        25.10       25.09       25.07       25.06       25.05       25.04       25.03       25.02       25.01       25.00    
  15    25.74       25.73       25.70       25.67       25.63       25.59       25.54       25.49       25.45       25.41    
        25.38       25.36       25.35       25.33       25.31       25.30       25.28       25.26       25.25       25.23    
        25.22       25.21       25.19       25.18       25.17       25.15       25.14       25.13       25.12       25.10    
        25.09       25.08       25.07       25.06       25.05       25.04       25.03       25.02       25.01       25.00    
  16    25.59       25.58       25.57       25.54       25.51       25.48       25.45       25.42       25.39       25.37    
        25.35       25.34       25.33       25.31       25.30       25.28       25.27       25.25       25.24       25.22    
        25.21       25.20       25.18       25.17       25.16       25.15       25.13       25.12       25.11       25.10    
        25.09       25.08       25.07       25.06       25.05       25.04       25.03       25.02       25.01       25.00    
  17    25.48       25.48       25.47       25.45       25.43       25.41       25.39       25.37       25.36       25.35    
        25.33       25.32       25.31       25.29       25.28       25.27       25.25       25.24       25.23       25.21    
        25.20       25.19       25.18       25.16       25.15       25.14       25.13       25.12       25.11       25.10    
        25.09       25.08       25.07       25.06       25.05       25.04       25.03       25.02       25.01       25.00    
  18    25.41       25.40       25.40       25.39       25.38       25.37       25.36       25.35       25.34       25.33    
        25.31       25.30       25.29       25.28       25.26       25.25       25.24       25.23       25.21       25.20    
        25.19       25.18       25.17       25.16       25.14       25.13       25.12       25.11       25.10       25.09    
        25.08       25.07       25.06       25.05       25.04       25.04       25.03       25.02       25.01       25.00    
  19    25.37       25.37       25.37       25.36       25.35       25.34       25.34       25.33       25.32       25.30    
        25.29       25.28       25.27       25.26       25.25       25.24       25.23       25.21       25.20       25.19    
        25.18       25.17       25.16       25.15       25.14       25.13       25.12       25.11       25.10       25.09    
        25.08       25.07       25.06       25.05       25.04       25.03       25.03       25.02       25.01       25.00    
  20    25.34       25.34       25.34       25.33       25.33       25.32       25.31       25.30       25.29       25.29    
        25.28       25.27       25.26       25.24       25.23       25.22       25.21       25.20       25.19       25.18    
        25.17       25.16       25.15       25.14       25.13       25.12       25.11       25.10       25.09       25.08    
        25.08       25.07       25.06       25.05       25.04       25.03       25.02       25.02       25.01       25.00    
  21    25.32       25.32       25.31       25.31       25.30       25.30       25.29       25.28       25.27       25.27    
        25.26       25.25       25.24       25.23       25.22       25.21       25.20       25.19       25.18       25.17    
        25.16       25.15       25.14       25.13       25.12       25.11       25.11       25.10       25.09       25.08    
        25.07       25.06       25.05       25.05       25.04       25.03       25.02       25.02       25.01       25.00    
  22    25.29       25.29       25.29       25.29       25.28       25.28       25.27       25.26       25.26       25.25    
        25.24       25.23       25.22       25.21       25.21       25.20       25.19       25.18       25.17       25.16    
        25.15       25.14       25.13       25.12       25.12       25.11       25.10       25.09       25.08       25.08    
        25.07       25.06       25.05       25.04       25.04       25.03       25.02       25.01       25.01       25.00    
  23    25.27       25.27       25.27       25.26       25.26       25.25       25.25       25.24       25.24       25.23    
        25.22       25.22       25.21       25.20       25.19       25.18       25.18       25.17       25.16       25.15    
        25.14       25.13       25.13       25.12       25.11       25.10       25.09       25.09       25.08       25.07    
        25.06       25.06       25.05       25.04       25.03       25.03       25.02       25.01       25.01       25.00    
  24    25.25       25.25       25.25       25.24       25.24       25.23       25.23       25.22       25.22       25.21    
        25.21       25.20       25.19       25.19       25.18       25.17       25.16       25.16       25.15       25.14    
        25.13       25.12       25.12       25.11       25.10       25.09       25.09       25.08       25.07       25.07    
        25.06       25.05       25.05       25.04       25.03       25.03       25.02       25.01       25.01       25.00    
  25    25.23       25.23       25.22       25.22       25.22       25.22       25.21       25.21       25.20       25.20    
        25.19       25.18       25.18       25.17       25.17       25.16       25.15       25.14       25.14       25.13    
        25.12       25.12       25.11       25.10       25.10       25.09       25.08       25.08       25.07       25.06    
        25.06       25.05       25.04       25.04       25.03       25.02       25.02       25.01       25.01       25.00    
  26    25.21       25.21       25.21       25.20       25.20       25.20       25.19       25.19       25.19       25.18    
        25.18       25.17       25.16       25.16       25.15       25.15       25.14       25.13       25.13       25.12    
        25.11       25.11       25.10       25.09       25.09       25.08       25.08       25.07       25.06       25.06    
        25.05       25.05       25.04       25.03       25.03       25.02       25.02       25.01       25.01       25.00    
  27    25.19       25.19       25.19       25.19       25.18       25.18       25.18       25.17       25.17       25.17    
        25.16       25.16       25.15       25.15       25.14       25.13       25.13       25.12       25.12       25.11    
        25.11       25.10       25.09       25.09       25.08       25.08       25.07       25.06       25.06       25.05    
        25.05       25.04       25.04       25.03       25.03       25.02       25.02       25.01       25.01       25.00    
  28    25.17       25.17       25.17       25.17       25.17       25.16       25.16       25.16       25.15       25.15    
        25.15       25.14       25.14       25.13       25.13       25.12       25.12       25.11       25.11       25.10    
        25.10       25.09       25.09       25.08       25.08       25.07       25.06       25.06       25.05       25.05    
        25.04       25.04       25.03       25.03       25.02       25.02       25.01       25.01       25.00       25.00    
  29    25.16       25.15       25.15       25.15       25.15       25.15       25.15       25.14       25.14       25.14    
        25.13       25.13       25.12       25.12       25.12       25.11       25.11       25.10       25.10       25.09    
        25.09       25.08       25.08       25.07       25.07       25.06       25.06       25.05       25.05       25.05    
        25.04       25.04       25.03       25.03       25.02       25.02       25.01       25.01       25.00       25.00    
  30    25.14       25.14       25.14       25.14       25.14       25.13       25.13       25.13       25.13       25.12    
        25.12       25.12       25.11       25.11       25.10       25.10       25.10       25.09       25.09       25.08    
        25.08       25.08       25.07       25.07       25.06       25.06       25.05       25.05       25.05       25.04    
        25.04       25.03       25.03       25.02       25.02       25.02       25.01       25.01       25.00       25.00    
  31    25.12       25.12       25.12       25.12       25.12       25.12       25.12       25.11       25.11       25.11    
        25.11       25.10       25.10       25.10       25.09       25.09       25.09       25.08       25.08       25.08    
        25.07       25.07       25.06       25.06       25.06       25.05       25.05       25.04       25.04       25.04    
        25.03       25.03       25.03       25.02       25.02       25.01       25.01       25.01       25.00       25.00    
  32    25.11       25.11       25.11       25.11       25.11       25.10       25.10       25.10       25.10       25.10    
        25.09       25.09       25.09       25.09       25.08       25.08       25.08       25.07       25.07       25.07    
        25.06       25.06       25.06       25.05       25.05       25.05       25.04       25.04       25.04       25.03    
        25.03       25.03       25.02       25.02       25.02       25.01       25.01       25.01       25.00       25.00    
  33    25.09       25.09       25.09       25.09       25.09       25.09       25.09       25.09       25.09       25.08    
        25.08       25.08       25.08       25.07       25.07       25.07       25.07       25.06       25.06       25.06    
        25.05       25.05       25.05       25.05       25.04       25.04       25.04       25.03       25.03       25.03    
        25.03       25.02       25.02       25.02       25.01       25.01       25.01       25.01       25.00       25.00    
  34    25.08       25.08       25.08       25.08       25.08       25.08       25.08       25.07       25.07       25.07    
        25.07       25.07       25.07       25.06       25.06       25.06       25.06       25.05       25.05       25.05    
        25.05       25.04       25.04       25.04       25.04       25.03       25.03       25.03       25.03       25.02    
        25.02       25.02       25.02       25.01       25.01       25.01       25.01       25.00       25.00       25.00    
  35    25.07       25.07       25.07       25.07       25.06       25.06       25.06       25.06       25.06       25.06    
        25.06       25.06       25.05       25.05       25.05       25.05       25.05       25.04       25.04       25.04    
        25.04       25.04       25.03       25.03       25.03       25.03       25.03       25.02       25.02       25.02    
        25.02       25.02       25.01       25.01       25.01       25.01       25.01       25.00       25.00       25.00    
  36    25.05       25.05       25.05       25.05       25.05       25.05       25.05       25.05       25.05       25.05    
        25.05       25.04       25.04       25.04       25.04       25.04       25.04       25.04       25.03       25.03    
        25.03       25.03       25.03       25.03       25.02       25.02       25.02       25.02       25.02       25.02    
        25.01       25.01       25.01       25.01       25.01       25.01       25.00       25.00       25.00       25.00    
  37    25.04       25.04       25.04       25.04       25.04       25.04       25.04       25.04       25.04       25.04    
        25.03       25.03       25.03       25.03       25.03       25.03       25.03       25.03       25.03       25.02    
        25.02       25.02       25.02       25.02       25.02       25.02       25.02       25.01       25.01       25.01    
        25.01       25.01       25.01       25.01       25.01       25.00       25.00       25.00       25.00       25.00    
  38    25.03       25.03       25.03       25.03       25.03       25.03       25.02       25.02       25.02       25.02    
        25.02       25.02       25.02       25.02       25.02       25.02       25.02       25.02       25.02       25.02    
        25.02       25.01       25.01       25.01       25.01       25.01       25.01       25.01       25.01       25.01    
        25.01       25.01       25.01       25.00       25.00       25.00       25.00       25.00       25.00       25.00    
  39    25.01       25.01       25.01       25.01       25.01       25.01       25.01       25.01       25.01       25.01    
        25.01       25.01       25.01       25.01       25.01       25.01       25.01       25.01       25.01       25.01    
        25.01       25.01       25.01       25.01       25.01       25.01       25.01       25.00       25.00       25.00    
        25.00       25.00       25.00       25.00       25.00       25.00       25.00       25.00       25.00       25.00    
  40    25.00       25.00       25.00       25.00       25.00       25.00       25.00       25.00       25.00       25.00    
        25.00       25.00       25.00       25.00       25.00       25.00       25.00       25.00       25.00       25.00    
        25.00       25.00       25.00       25.00       25.00       25.00       25.00       25.00       25.00       25.00    
        25.00       25.00       25.00       25.00       25.00       25.00       25.00       25.00       25.00       25.00    
1
              HEAD IN LAYER  13 AT END OF TIME STEP   2 IN STRESS PERIOD    2
  ---------------------------------------------------------------------------

            1           2           3           4           5           6           7           8           9          10
           11          12          13          14          15          16          17          18          19          20
           21          22          23          24          25          26          27          28          29          30
           31          32          33          34          35          36          37          38          39          40
 ........................................................................................................................
   1    44.22       42.62       39.42       36.49       34.10       32.18       30.64       29.40       28.42       27.65    
        27.05       26.58       26.22       25.95       25.74       25.59       25.48       25.41       25.37       25.34    
        25.32       25.29       25.27       25.25       25.23       25.21       25.19       25.17       25.16       25.14    
        25.12       25.11       25.09       25.08       25.07       25.05       25.04       25.03       25.01       25.00    
   2    42.62       41.22       38.43       35.83       33.66       31.88       30.43       29.26       28.32       27.58    
        27.00       26.54       26.20       25.93       25.73       25.58       25.48       25.41       25.37       25.34    
        25.32       25.29       25.27       25.25       25.23       25.21       25.19       25.17       25.15       25.14    
        25.12       25.11       25.09       25.08       25.07       25.05       25.04       25.03       25.01       25.00    
   3    39.42       38.43       36.58       34.62       32.86       31.33       30.04       28.99       28.13       27.44    
        26.90       26.48       26.15       25.90       25.71       25.57       25.47       25.40       25.37       25.34    
        25.31       25.29       25.27       25.25       25.22       25.21       25.19       25.17       25.15       25.14    
        25.12       25.11       25.09       25.08       25.07       25.05       25.04       25.03       25.01       25.00    
   4    36.49       35.83       34.62       33.24       31.87       30.63       29.54       28.63       27.87       27.26    
        26.77       26.38       26.08       25.85       25.67       25.54       25.45       25.39       25.36       25.33    
        25.31       25.29       25.26       25.24       25.22       25.20       25.19       25.17       25.15       25.14    
        25.12       25.11       25.09       25.08       25.07       25.05       25.04       25.03       25.01       25.00    
   5    34.10       33.66       32.86       31.87       30.84       29.86       28.98       28.21       27.57       27.04    
        26.61       26.27       26.00       25.79       25.63       25.52       25.43       25.38       25.35       25.33    
        25.30       25.28       25.26       25.24       25.22       25.20       25.18       25.17       25.15       25.14    
        25.12       25.11       25.09       25.08       25.06       25.05       25.04       25.03       25.01       25.00    
   6    32.18       31.88       31.33       30.63       29.86       29.11       28.41       27.79       27.25       26.81    
        26.44       26.14       25.91       25.73       25.59       25.48       25.41       25.37       25.34       25.32    
        25.30       25.28       25.25       25.23       25.22       25.20       25.18       25.16       25.15       25.13    
        25.12       25.10       25.09       25.08       25.06       25.05       25.04       25.03       25.01       25.00    
   7    30.64       30.43       30.04       29.54       28.98       28.41       27.86       27.37       26.94       26.57    
        26.26       26.01       25.82       25.66       25.54       25.45       25.39       25.36       25.34       25.31    
        25.29       25.27       25.25       25.23       25.21       25.19       25.18       25.16       25.15       25.13    
        25.12       25.10       25.09       25.08       25.06       25.05       25.04       25.02       25.01       25.00    
   8    29.40       29.26       28.99       28.63       28.21       27.79       27.37       26.98       26.64       26.35    
        26.10       25.89       25.72       25.59       25.49       25.42       25.37       25.35       25.33       25.30    
        25.28       25.26       25.24       25.22       25.21       25.19       25.17       25.16       25.14       25.13    
        25.11       25.10       25.09       25.07       25.06       25.05       25.04       25.02       25.01       25.00    
   9    28.42       28.32       28.13       27.87       27.57       27.25       26.94       26.64       26.37       26.14    
        25.94       25.77       25.64       25.53       25.45       25.39       25.36       25.34       25.32       25.29    
        25.27       25.26       25.24       25.22       25.20       25.19       25.17       25.15       25.14       25.13    
        25.11       25.10       25.09       25.07       25.06       25.05       25.04       25.02       25.01       25.00    
  10    27.65       27.58       27.44       27.26       27.04       26.81       26.57       26.35       26.14       25.96    
        25.80       25.67       25.56       25.47       25.41       25.37       25.35       25.33       25.30       25.29    
        25.27       25.25       25.23       25.21       25.20       25.18       25.17       25.15       25.14       25.12    
        25.11       25.10       25.08       25.07       25.06       25.05       25.04       25.02       25.01       25.00    
  11    27.05       27.00       26.90       26.77       26.61       26.44       26.26       26.10       25.94       25.80    
        25.68       25.58       25.49       25.42       25.38       25.35       25.33       25.31       25.29       25.28    
        25.26       25.24       25.22       25.21       25.19       25.18       25.16       25.15       25.13       25.12    
        25.11       25.09       25.08       25.07       25.06       25.05       25.03       25.02       25.01       25.00    
  12    26.58       26.54       26.48       26.38       26.27       26.14       26.01       25.89       25.77       25.67    
        25.58       25.50       25.43       25.39       25.36       25.34       25.32       25.30       25.28       25.27    
        25.25       25.23       25.22       25.20       25.18       25.17       25.16       25.14       25.13       25.12    
        25.10       25.09       25.08       25.07       25.06       25.04       25.03       25.02       25.01       25.00    
  13    26.22       26.20       26.15       26.08       26.00       25.91       25.82       25.72       25.64       25.56    
        25.49       25.43       25.39       25.37       25.35       25.33       25.31       25.29       25.27       25.26    
        25.24       25.22       25.21       25.19       25.18       25.16       25.15       25.14       25.12       25.11    
        25.10       25.09       25.08       25.07       25.05       25.04       25.03       25.02       25.01       25.00    
  14    25.95       25.93       25.90       25.85       25.79       25.73       25.66       25.59       25.53       25.47    
        25.42       25.39       25.37       25.35       25.33       25.31       25.29       25.28       25.26       25.24    
        25.23       25.21       25.20       25.19       25.17       25.16       25.15       25.13       25.12       25.11    
        25.10       25.09       25.07       25.06       25.05       25.04       25.03       25.02       25.01       25.00    
  15    25.74       25.73       25.71       25.67       25.63       25.59       25.54       25.49       25.45       25.41    
        25.38       25.36       25.35       25.33       25.31       25.30       25.28       25.26       25.25       25.23    
        25.22       25.21       25.19       25.18       25.17       25.15       25.14       25.13       25.12       25.10    
        25.09       25.08       25.07       25.06       25.05       25.04       25.03       25.02       25.01       25.00    
  16    25.59       25.58       25.57       25.54       25.52       25.48       25.45       25.42       25.39       25.37    
        25.35       25.34       25.33       25.31       25.30       25.28       25.27       25.25       25.24       25.22    
        25.21       25.20       25.18       25.17       25.16       25.15       25.13       25.12       25.11       25.10    
        25.09       25.08       25.07       25.06       25.05       25.04       25.03       25.02       25.01       25.00    
  17    25.48       25.48       25.47       25.45       25.43       25.41       25.39       25.37       25.36       25.35    
        25.33       25.32       25.31       25.29       25.28       25.27       25.25       25.24       25.23       25.21    
        25.20       25.19       25.18       25.16       25.15       25.14       25.13       25.12       25.11       25.10    
        25.09       25.08       25.07       25.06       25.05       25.04       25.03       25.02       25.01       25.00    
  18    25.41       25.41       25.40       25.39       25.38       25.37       25.36       25.35       25.34       25.33    
        25.31       25.30       25.29       25.28       25.26       25.25       25.24       25.23       25.21       25.20    
        25.19       25.18       25.17       25.16       25.14       25.13       25.12       25.11       25.10       25.09    
        25.08       25.07       25.06       25.05       25.04       25.04       25.03       25.02       25.01       25.00    
  19    25.37       25.37       25.37       25.36       25.35       25.34       25.34       25.33       25.32       25.30    
        25.29       25.28       25.27       25.26       25.25       25.24       25.23       25.21       25.20       25.19    
        25.18       25.17       25.16       25.15       25.14       25.13       25.12       25.11       25.10       25.09    
        25.08       25.07       25.06       25.05       25.04       25.03       25.03       25.02       25.01       25.00    
  20    25.34       25.34       25.34       25.33       25.33       25.32       25.31       25.30       25.29       25.29    
        25.28       25.27       25.26       25.24       25.23       25.22       25.21       25.20       25.19       25.18    
        25.17       25.16       25.15       25.14       25.13       25.12       25.11       25.10       25.09       25.08    
        25.08       25.07       25.06       25.05       25.04       25.03       25.02       25.02       25.01       25.00    
  21    25.32       25.32       25.31       25.31       25.30       25.30       25.29       25.28       25.27       25.27    
        25.26       25.25       25.24       25.23       25.22       25.21       25.20       25.19       25.18       25.17    
        25.16       25.15       25.14       25.13       25.12       25.11       25.11       25.10       25.09       25.08    
        25.07       25.06       25.05       25.05       25.04       25.03       25.02       25.02       25.01       25.00    
  22    25.29       25.29       25.29       25.29       25.28       25.28       25.27       25.26       25.26       25.25    
        25.24       25.23       25.22       25.21       25.21       25.20       25.19       25.18       25.17       25.16    
        25.15       25.14       25.13       25.12       25.12       25.11       25.10       25.09       25.08       25.08    
        25.07       25.06       25.05       25.04       25.04       25.03       25.02       25.01       25.01       25.00    
  23    25.27       25.27       25.27       25.26       25.26       25.25       25.25       25.24       25.24       25.23    
        25.22       25.22       25.21       25.20       25.19       25.18       25.18       25.17       25.16       25.15    
        25.14       25.13       25.13       25.12       25.11       25.10       25.09       25.09       25.08       25.07    
        25.06       25.06       25.05       25.04       25.03       25.03       25.02       25.01       25.01       25.00    
  24    25.25       25.25       25.25       25.24       25.24       25.23       25.23       25.22       25.22       25.21    
        25.21       25.20       25.19       25.19       25.18       25.17       25.16       25.16       25.15       25.14    
        25.13       25.12       25.12       25.11       25.10       25.09       25.09       25.08       25.07       25.07    
        25.06       25.05       25.05       25.04       25.03       25.03       25.02       25.01       25.01       25.00    
  25    25.23       25.23       25.22       25.22       25.22       25.22       25.21       25.21       25.20       25.20    
        25.19       25.18       25.18       25.17       25.17       25.16       25.15       25.14       25.14       25.13    
        25.12       25.12       25.11       25.10       25.10       25.09       25.08       25.08       25.07       25.06    
        25.06       25.05       25.04       25.04       25.03       25.02       25.02       25.01       25.01       25.00    
  26    25.21       25.21       25.21       25.20       25.20       25.20       25.19       25.19       25.19       25.18    
        25.18       25.17       25.16       25.16       25.15       25.15       25.14       25.13       25.13       25.12    
        25.11       25.11       25.10       25.09       25.09       25.08       25.08       25.07       25.06       25.06    
        25.05       25.05       25.04       25.03       25.03       25.02       25.02       25.01       25.01       25.00    
  27    25.19       25.19       25.19       25.19       25.18       25.18       25.18       25.17       25.17       25.17    
        25.16       25.16       25.15       25.15       25.14       25.13       25.13       25.12       25.12       25.11    
        25.11       25.10       25.09       25.09       25.08       25.08       25.07       25.06       25.06       25.05    
        25.05       25.04       25.04       25.03       25.03       25.02       25.02       25.01       25.01       25.00    
  28    25.17       25.17       25.17       25.17       25.17       25.16       25.16       25.16       25.15       25.15    
        25.15       25.14       25.14       25.13       25.13       25.12       25.12       25.11       25.11       25.10    
        25.10       25.09       25.09       25.08       25.08       25.07       25.06       25.06       25.05       25.05    
        25.04       25.04       25.03       25.03       25.02       25.02       25.01       25.01       25.00       25.00    
  29    25.16       25.15       25.15       25.15       25.15       25.15       25.15       25.14       25.14       25.14    
        25.13       25.13       25.12       25.12       25.12       25.11       25.11       25.10       25.10       25.09    
        25.09       25.08       25.08       25.07       25.07       25.06       25.06       25.05       25.05       25.05    
        25.04       25.04       25.03       25.03       25.02       25.02       25.01       25.01       25.00       25.00    
  30    25.14       25.14       25.14       25.14       25.14       25.13       25.13       25.13       25.13       25.12    
        25.12       25.12       25.11       25.11       25.10       25.10       25.10       25.09       25.09       25.08    
        25.08       25.08       25.07       25.07       25.06       25.06       25.05       25.05       25.05       25.04    
        25.04       25.03       25.03       25.02       25.02       25.02       25.01       25.01       25.00       25.00    
  31    25.12       25.12       25.12       25.12       25.12       25.12       25.12       25.11       25.11       25.11    
        25.11       25.10       25.10       25.10       25.09       25.09       25.09       25.08       25.08       25.08    
        25.07       25.07       25.06       25.06       25.06       25.05       25.05       25.04       25.04       25.04    
        25.03       25.03       25.03       25.02       25.02       25.01       25.01       25.01       25.00       25.00    
  32    25.11       25.11       25.11       25.11       25.11       25.10       25.10       25.10       25.10       25.10    
        25.09       25.09       25.09       25.09       25.08       25.08       25.08       25.07       25.07       25.07    
        25.06       25.06       25.06       25.05       25.05       25.05       25.04       25.04       25.04       25.03    
        25.03       25.03       25.02       25.02       25.02       25.01       25.01       25.01       25.00       25.00    
  33    25.09       25.09       25.09       25.09       25.09       25.09       25.09       25.09       25.09       25.08    
        25.08       25.08       25.08       25.07       25.07       25.07       25.07       25.06       25.06       25.06    
        25.05       25.05       25.05       25.05       25.04       25.04       25.04       25.03       25.03       25.03    
        25.03       25.02       25.02       25.02       25.01       25.01       25.01       25.01       25.00       25.00    
  34    25.08       25.08       25.08       25.08       25.08       25.08       25.08       25.07       25.07       25.07    
        25.07       25.07       25.07       25.06       25.06       25.06       25.06       25.05       25.05       25.05    
        25.05       25.04       25.04       25.04       25.04       25.03       25.03       25.03       25.03       25.02    
        25.02       25.02       25.02       25.01       25.01       25.01       25.01       25.00       25.00       25.00    
  35    25.07       25.07       25.07       25.07       25.06       25.06       25.06       25.06       25.06       25.06    
        25.06       25.06       25.05       25.05       25.05       25.05       25.05       25.04       25.04       25.04    
        25.04       25.04       25.03       25.03       25.03       25.03       25.03       25.02       25.02       25.02    
        25.02       25.02       25.01       25.01       25.01       25.01       25.01       25.00       25.00       25.00    
  36    25.05       25.05       25.05       25.05       25.05       25.05       25.05       25.05       25.05       25.05    
        25.05       25.04       25.04       25.04       25.04       25.04       25.04       25.04       25.03       25.03    
        25.03       25.03       25.03       25.03       25.02       25.02       25.02       25.02       25.02       25.02    
        25.01       25.01       25.01       25.01       25.01       25.01       25.00       25.00       25.00       25.00    
  37    25.04       25.04       25.04       25.04       25.04       25.04       25.04       25.04       25.04       25.04    
        25.03       25.03       25.03       25.03       25.03       25.03       25.03       25.03       25.03       25.02    
        25.02       25.02       25.02       25.02       25.02       25.02       25.02       25.01       25.01       25.01    
        25.01       25.01       25.01       25.01       25.01       25.00       25.00       25.00       25.00       25.00    
  38    25.03       25.03       25.03       25.03       25.03       25.03       25.02       25.02       25.02       25.02    
        25.02       25.02       25.02       25.02       25.02       25.02       25.02       25.02       25.02       25.02    
        25.02       25.01       25.01       25.01       25.01       25.01       25.01       25.01       25.01       25.01    
        25.01       25.01       25.01       25.00       25.00       25.00       25.00       25.00       25.00       25.00    
  39    25.01       25.01       25.01       25.01       25.01       25.01       25.01       25.01       25.01       25.01    
        25.01       25.01       25.01       25.01       25.01       25.01       25.01       25.01       25.01       25.01    
        25.01       25.01       25.01       25.01       25.01       25.01       25.01       25.00       25.00       25.00    
        25.00       25.00       25.00       25.00       25.00       25.00       25.00       25.00       25.00       25.00    
  40    25.00       25.00       25.00       25.00       25.00       25.00       25.00       25.00       25.00       25.00    
        25.00       25.00       25.00       25.00       25.00       25.00       25.00       25.00       25.00       25.00    
        25.00       25.00       25.00       25.00       25.00       25.00       25.00       25.00       25.00       25.00    
        25.00       25.00       25.00       25.00       25.00       25.00       25.00       25.00       25.00       25.00    
1
              HEAD IN LAYER  14 AT END OF TIME STEP   2 IN STRESS PERIOD    2
  ---------------------------------------------------------------------------

            1           2           3           4           5           6           7           8           9          10
           11          12          13          14          15          16          17          18          19          20
           21          22          23          24          25          26          27          28          29          30
           31          32          33          34          35          36          37          38          39          40
 ........................................................................................................................
   1    44.12       42.53       39.39       36.49       34.10       32.18       30.64       29.40       28.42       27.65    
        27.05       26.58       26.22       25.95       25.74       25.59       25.49       25.41       25.37       25.34    
        25.32       25.29       25.27       25.25       25.23       25.21       25.19       25.17       25.16       25.14    
        25.12       25.11       25.09       25.08       25.07       25.05       25.04       25.03       25.01       25.00    
   2    42.53       41.14       38.41       35.82       33.66       31.89       30.43       29.26       28.32       27.58    
        27.00       26.55       26.20       25.93       25.73       25.59       25.48       25.41       25.37       25.34    
        25.32       25.29       25.27       25.25       25.23       25.21       25.19       25.17       25.15       25.14    
        25.12       25.11       25.09       25.08       25.07       25.05       25.04       25.03       25.01       25.00    
   3    39.39       38.41       36.57       34.62       32.86       31.33       30.04       28.99       28.13       27.45    
        26.90       26.48       26.15       25.90       25.71       25.57       25.47       25.40       25.37       25.34    
        25.31       25.29       25.27       25.25       25.22       25.21       25.19       25.17       25.15       25.14    
        25.12       25.11       25.09       25.08       25.07       25.05       25.04       25.03       25.01       25.00    
   4    36.49       35.82       34.62       33.24       31.87       30.63       29.54       28.63       27.87       27.26    
        26.77       26.38       26.08       25.85       25.68       25.55       25.45       25.39       25.36       25.33    
        25.31       25.29       25.26       25.24       25.22       25.20       25.19       25.17       25.15       25.14    
        25.12       25.11       25.09       25.08       25.07       25.05       25.04       25.03       25.01       25.00    
   5    34.10       33.66       32.86       31.87       30.85       29.86       28.98       28.22       27.57       27.04    
        26.61       26.27       26.00       25.79       25.63       25.52       25.43       25.38       25.35       25.33    
        25.30       25.28       25.26       25.24       25.22       25.20       25.18       25.17       25.15       25.14    
        25.12       25.11       25.09       25.08       25.06       25.05       25.04       25.03       25.01       25.00    
   6    32.18       31.89       31.33       30.63       29.86       29.11       28.41       27.79       27.26       26.81    
        26.44       26.14       25.91       25.73       25.59       25.49       25.41       25.37       25.34       25.32    
        25.30       25.28       25.25       25.23       25.22       25.20       25.18       25.16       25.15       25.13    
        25.12       25.10       25.09       25.08       25.06       25.05       25.04       25.03       25.01       25.00    
   7    30.64       30.43       30.04       29.54       28.98       28.41       27.87       27.37       26.94       26.57    
        26.27       26.02       25.82       25.66       25.54       25.45       25.39       25.36       25.34       25.31    
        25.29       25.27       25.25       25.23       25.21       25.19       25.18       25.16       25.15       25.13    
        25.12       25.10       25.09       25.08       25.06       25.05       25.04       25.02       25.01       25.00    
   8    29.40       29.26       28.99       28.63       28.22       27.79       27.37       26.99       26.64       26.35    
        26.10       25.89       25.73       25.60       25.49       25.42       25.37       25.35       25.33       25.30    
        25.28       25.26       25.24       25.22       25.21       25.19       25.17       25.16       25.14       25.13    
        25.11       25.10       25.09       25.07       25.06       25.05       25.04       25.02       25.01       25.00    
   9    28.42       28.32       28.13       27.87       27.57       27.26       26.94       26.64       26.38       26.14    
        25.94       25.77       25.64       25.53       25.45       25.39       25.36       25.34       25.32       25.29    
        25.27       25.26       25.24       25.22       25.20       25.19       25.17       25.15       25.14       25.13    
        25.11       25.10       25.09       25.07       25.06       25.05       25.04       25.02       25.01       25.00    
  10    27.65       27.58       27.45       27.26       27.04       26.81       26.57       26.35       26.14       25.96    
        25.80       25.67       25.56       25.48       25.41       25.37       25.35       25.33       25.30       25.29    
        25.27       25.25       25.23       25.21       25.20       25.18       25.17       25.15       25.14       25.12    
        25.11       25.10       25.08       25.07       25.06       25.05       25.04       25.02       25.01       25.00    
  11    27.05       27.00       26.90       26.77       26.61       26.44       26.27       26.10       25.94       25.80    
        25.68       25.58       25.49       25.43       25.38       25.35       25.33       25.31       25.29       25.28    
        25.26       25.24       25.22       25.21       25.19       25.18       25.16       25.15       25.13       25.12    
        25.11       25.09       25.08       25.07       25.06       25.05       25.03       25.02       25.01       25.00    
  12    26.58       26.55       26.48       26.38       26.27       26.14       26.02       25.89       25.77       25.67    
        25.58       25.50       25.43       25.39       25.36       25.34       25.32       25.30       25.28       25.27    
        25.25       25.23       25.22       25.20       25.18       25.17       25.16       25.14       25.13       25.12    
        25.10       25.09       25.08       25.07       25.06       25.04       25.03       25.02       25.01       25.00    
  13    26.22       26.20       26.15       26.08       26.00       25.91       25.82       25.73       25.64       25.56    
        25.49       25.43       25.39       25.37       25.35       25.33       25.31       25.29       25.27       25.26    
        25.24       25.22       25.21       25.19       25.18       25.16       25.15       25.14       25.12       25.11    
        25.10       25.09       25.08       25.07       25.05       25.04       25.03       25.02       25.01       25.00    
  14    25.95       25.93       25.90       25.85       25.79       25.73       25.66       25.60       25.53       25.48    
        25.43       25.39       25.37       25.35       25.33       25.31       25.29       25.28       25.26       25.24    
        25.23       25.21       25.20       25.19       25.17       25.16       25.15       25.13       25.12       25.11    
        25.10       25.09       25.07       25.06       25.05       25.04       25.03       25.02       25.01       25.00    
  15    25.74       25.73       25.71       25.68       25.63       25.59       25.54       25.49       25.45       25.41    
        25.38       25.36       25.35       25.33       25.31       25.30       25.28       25.26       25.25       25.23    
        25.22       25.21       25.19       25.18       25.17       25.15       25.14       25.13       25.12       25.10    
        25.09       25.08       25.07       25.06       25.05       25.04       25.03       25.02       25.01       25.00    
  16    25.59       25.59       25.57       25.55       25.52       25.49       25.45       25.42       25.39       25.37    
        25.35       25.34       25.33       25.31       25.30       25.28       25.27       25.25       25.24       25.22    
        25.21       25.20       25.18       25.17       25.16       25.15       25.13       25.12       25.11       25.10    
        25.09       25.08       25.07       25.06       25.05       25.04       25.03       25.02       25.01       25.00    
  17    25.49       25.48       25.47       25.45       25.43       25.41       25.39       25.37       25.36       25.35    
        25.33       25.32       25.31       25.29       25.28       25.27       25.25       25.24       25.23       25.21    
        25.20       25.19       25.18       25.16       25.15       25.14       25.13       25.12       25.11       25.10    
        25.09       25.08       25.07       25.06       25.05       25.04       25.03       25.02       25.01       25.00    
  18    25.41       25.41       25.40       25.39       25.38       25.37       25.36       25.35       25.34       25.33    
        25.31       25.30       25.29       25.28       25.26       25.25       25.24       25.23       25.21       25.20    
        25.19       25.18       25.17       25.16       25.14       25.13       25.12       25.11       25.10       25.09    
        25.08       25.07       25.06       25.05       25.04       25.04       25.03       25.02       25.01       25.00    
  19    25.37       25.37       25.37       25.36       25.35       25.34       25.34       25.33       25.32       25.30    
        25.29       25.28       25.27       25.26       25.25       25.24       25.23       25.21       25.20       25.19    
        25.18       25.17       25.16       25.15       25.14       25.13       25.12       25.11       25.10       25.09    
        25.08       25.07       25.06       25.05       25.04       25.03       25.03       25.02       25.01       25.00    
  20    25.34       25.34       25.34       25.33       25.33       25.32       25.31       25.30       25.29       25.29    
        25.28       25.27       25.26       25.24       25.23       25.22       25.21       25.20       25.19       25.18    
        25.17       25.16       25.15       25.14       25.13       25.12       25.11       25.10       25.09       25.08    
        25.08       25.07       25.06       25.05       25.04       25.03       25.02       25.02       25.01       25.00    
  21    25.32       25.32       25.31       25.31       25.30       25.30       25.29       25.28       25.27       25.27    
        25.26       25.25       25.24       25.23       25.22       25.21       25.20       25.19       25.18       25.17    
        25.16       25.15       25.14       25.13       25.12       25.11       25.11       25.10       25.09       25.08    
        25.07       25.06       25.05       25.05       25.04       25.03       25.02       25.02       25.01       25.00    
  22    25.29       25.29       25.29       25.29       25.28       25.28       25.27       25.26       25.26       25.25    
        25.24       25.23       25.22       25.21       25.21       25.20       25.19       25.18       25.17       25.16    
        25.15       25.14       25.13       25.12       25.12       25.11       25.10       25.09       25.08       25.08    
        25.07       25.06       25.05       25.04       25.04       25.03       25.02       25.01       25.01       25.00    
  23    25.27       25.27       25.27       25.26       25.26       25.25       25.25       25.24       25.24       25.23    
        25.22       25.22       25.21       25.20       25.19       25.18       25.18       25.17       25.16       25.15    
        25.14       25.13       25.13       25.12       25.11       25.10       25.09       25.09       25.08       25.07    
        25.06       25.06       25.05       25.04       25.03       25.03       25.02       25.01       25.01       25.00    
  24    25.25       25.25       25.25       25.24       25.24       25.23       25.23       25.22       25.22       25.21    
        25.21       25.20       25.19       25.19       25.18       25.17       25.16       25.16       25.15       25.14    
        25.13       25.12       25.12       25.11       25.10       25.09       25.09       25.08       25.07       25.07    
        25.06       25.05       25.05       25.04       25.03       25.03       25.02       25.01       25.01       25.00    
  25    25.23       25.23       25.22       25.22       25.22       25.22       25.21       25.21       25.20       25.20    
        25.19       25.18       25.18       25.17       25.17       25.16       25.15       25.14       25.14       25.13    
        25.12       25.12       25.11       25.10       25.10       25.09       25.08       25.08       25.07       25.06    
        25.06       25.05       25.04       25.04       25.03       25.02       25.02       25.01       25.01       25.00    
  26    25.21       25.21       25.21       25.20       25.20       25.20       25.19       25.19       25.19       25.18    
        25.18       25.17       25.16       25.16       25.15       25.15       25.14       25.13       25.13       25.12    
        25.11       25.11       25.10       25.09       25.09       25.08       25.08       25.07       25.06       25.06    
        25.05       25.05       25.04       25.03       25.03       25.02       25.02       25.01       25.01       25.00    
  27    25.19       25.19       25.19       25.19       25.18       25.18       25.18       25.17       25.17       25.17    
        25.16       25.16       25.15       25.15       25.14       25.13       25.13       25.12       25.12       25.11    
        25.11       25.10       25.09       25.09       25.08       25.08       25.07       25.06       25.06       25.05    
        25.05       25.04       25.04       25.03       25.03       25.02       25.02       25.01       25.01       25.00    
  28    25.17       25.17       25.17       25.17       25.17       25.16       25.16       25.16       25.15       25.15    
        25.15       25.14       25.14       25.13       25.13       25.12       25.12       25.11       25.11       25.10    
        25.10       25.09       25.09       25.08       25.08       25.07       25.06       25.06       25.05       25.05    
        25.04       25.04       25.03       25.03       25.02       25.02       25.01       25.01       25.00       25.00    
  29    25.16       25.15       25.15       25.15       25.15       25.15       25.15       25.14       25.14       25.14    
        25.13       25.13       25.12       25.12       25.12       25.11       25.11       25.10       25.10       25.09    
        25.09       25.08       25.08       25.07       25.07       25.06       25.06       25.05       25.05       25.05    
        25.04       25.04       25.03       25.03       25.02       25.02       25.01       25.01       25.00       25.00    
  30    25.14       25.14       25.14       25.14       25.14       25.13       25.13       25.13       25.13       25.12    
        25.12       25.12       25.11       25.11       25.10       25.10       25.10       25.09       25.09       25.08    
        25.08       25.08       25.07       25.07       25.06       25.06       25.05       25.05       25.05       25.04    
        25.04       25.03       25.03       25.02       25.02       25.02       25.01       25.01       25.00       25.00    
  31    25.12       25.12       25.12       25.12       25.12       25.12       25.12       25.11       25.11       25.11    
        25.11       25.10       25.10       25.10       25.09       25.09       25.09       25.08       25.08       25.08    
        25.07       25.07       25.06       25.06       25.06       25.05       25.05       25.04       25.04       25.04    
        25.03       25.03       25.03       25.02       25.02       25.01       25.01       25.01       25.00       25.00    
  32    25.11       25.11       25.11       25.11       25.11       25.10       25.10       25.10       25.10       25.10    
        25.09       25.09       25.09       25.09       25.08       25.08       25.08       25.07       25.07       25.07    
        25.06       25.06       25.06       25.05       25.05       25.05       25.04       25.04       25.04       25.03    
        25.03       25.03       25.02       25.02       25.02       25.01       25.01       25.01       25.00       25.00    
  33    25.09       25.09       25.09       25.09       25.09       25.09       25.09       25.09       25.09       25.08    
        25.08       25.08       25.08       25.07       25.07       25.07       25.07       25.06       25.06       25.06    
        25.05       25.05       25.05       25.05       25.04       25.04       25.04       25.03       25.03       25.03    
        25.03       25.02       25.02       25.02       25.01       25.01       25.01       25.01       25.00       25.00    
  34    25.08       25.08       25.08       25.08       25.08       25.08       25.08       25.07       25.07       25.07    
        25.07       25.07       25.07       25.06       25.06       25.06       25.06       25.05       25.05       25.05    
        25.05       25.04       25.04       25.04       25.04       25.03       25.03       25.03       25.03       25.02    
        25.02       25.02       25.02       25.01       25.01       25.01       25.01       25.00       25.00       25.00    
  35    25.07       25.07       25.07       25.07       25.06       25.06       25.06       25.06       25.06       25.06    
        25.06       25.06       25.05       25.05       25.05       25.05       25.05       25.04       25.04       25.04    
        25.04       25.04       25.03       25.03       25.03       25.03       25.03       25.02       25.02       25.02    
        25.02       25.02       25.01       25.01       25.01       25.01       25.01       25.00       25.00       25.00    
  36    25.05       25.05       25.05       25.05       25.05       25.05       25.05       25.05       25.05       25.05    
        25.05       25.04       25.04       25.04       25.04       25.04       25.04       25.04       25.03       25.03    
        25.03       25.03       25.03       25.03       25.02       25.02       25.02       25.02       25.02       25.02    
        25.01       25.01       25.01       25.01       25.01       25.01       25.00       25.00       25.00       25.00    
  37    25.04       25.04       25.04       25.04       25.04       25.04       25.04       25.04       25.04       25.04    
        25.03       25.03       25.03       25.03       25.03       25.03       25.03       25.03       25.03       25.02    
        25.02       25.02       25.02       25.02       25.02       25.02       25.02       25.01       25.01       25.01    
        25.01       25.01       25.01       25.01       25.01       25.00       25.00       25.00       25.00       25.00    
  38    25.03       25.03       25.03       25.03       25.03       25.03       25.02       25.02       25.02       25.02    
        25.02       25.02       25.02       25.02       25.02       25.02       25.02       25.02       25.02       25.02    
        25.02       25.01       25.01       25.01       25.01       25.01       25.01       25.01       25.01       25.01    
        25.01       25.01       25.01       25.00       25.00       25.00       25.00       25.00       25.00       25.00    
  39    25.01       25.01       25.01       25.01       25.01       25.01       25.01       25.01       25.01       25.01    
        25.01       25.01       25.01       25.01       25.01       25.01       25.01       25.01       25.01       25.01    
        25.01       25.01       25.01       25.01       25.01       25.01       25.01       25.00       25.00       25.00    
        25.00       25.00       25.00       25.00       25.00       25.00       25.00       25.00       25.00       25.00    
  40    25.00       25.00       25.00       25.00       25.00       25.00       25.00       25.00       25.00       25.00    
        25.00       25.00       25.00       25.00       25.00       25.00       25.00       25.00       25.00       25.00    
        25.00       25.00       25.00       25.00       25.00       25.00       25.00       25.00       25.00       25.00    
        25.00       25.00       25.00       25.00       25.00       25.00       25.00       25.00       25.00       25.00    
1
  VOLUMETRIC BUDGET FOR ENTIRE MODEL AT END OF TIME STEP    2, STRESS PERIOD   2
  ------------------------------------------------------------------------------

     CUMULATIVE VOLUMES      L**3       RATES FOR THIS TIME STEP      L**3/T
     ------------------                 ------------------------

           IN:                                      IN:
           ---                                      ---
             STORAGE =           0.3008               STORAGE =           0.0000
       CONSTANT HEAD =           0.1204         CONSTANT HEAD =           0.0000
            RECHARGE =     2212500.0000              RECHARGE =        3125.0000

            TOTAL IN =     2212500.2500              TOTAL IN =        3125.0000

          OUT:                                     OUT:
          ----                                     ----
             STORAGE =     2184969.2500               STORAGE =        3049.9998
       CONSTANT HEAD =       27534.4023         CONSTANT HEAD =          74.9979
            RECHARGE =           0.0000              RECHARGE =           0.0000

           TOTAL OUT =     2212503.7500             TOTAL OUT =        3124.9976

            IN - OUT =          -3.5000              IN - OUT =       2.4414E-03

 PERCENT DISCREPANCY =          -0.00     PERCENT DISCREPANCY =           0.00






         TIME SUMMARY AT END OF TIME STEP    2 IN STRESS PERIOD    2
                    SECONDS     MINUTES      HOURS       DAYS        YEARS
                    -----------------------------------------------------------
   TIME STEP LENGTH 2.23776E+07 3.72960E+05  6216.0      259.00     0.70910    
 STRESS PERIOD TIME 4.47552E+07 7.45920E+05  12432.      518.00      1.4182    
         TOTAL TIME 6.11712E+07 1.01952E+06  16992.      708.00      1.9384    
1
1
                            STRESS PERIOD NO.    3, LENGTH =   1922.000    
                            -----------------------------------------------

                              NUMBER OF TIME STEPS =    17

                               MULTIPLIER FOR DELT =     1.000

                            INITIAL TIME STEP SIZE =   113.0588    

 REUSING RECH FROM LAST STRESS PERIOD
 
 SOLVING FOR HEAD 

 CELL CONVERSIONS FOR ITER.=  2  LAYER=  6  STEP=  1  PERIOD=   3   (ROW,COL)
    WET(  1,  3)   WET(  3,  1)   

 CELL CONVERSIONS FOR ITER.=  2  LAYER=  7  STEP=  1  PERIOD=   3   (ROW,COL)
    WET(  3,  4)   WET(  4,  3)   

 CELL CONVERSIONS FOR ITER.=  2  LAYER=  8  STEP=  1  PERIOD=   3   (ROW,COL)
    WET(  2,  7)   WET(  3,  7)   WET(  5,  6)   WET(  6,  5)   WET(  7,  2)   
    WET(  7,  3)   

 CELL CONVERSIONS FOR ITER.=  2  LAYER=  9  STEP=  1  PERIOD=   3   (ROW,COL)
    WET(  1, 19)   WET(  2, 19)   WET(  3, 19)   WET(  4, 19)   WET(  6, 18)   
    WET(  7, 18)   WET(  9, 17)   WET( 12, 15)   WET( 13, 14)   WET( 14, 13)   
    WET( 15, 12)   WET( 17,  9)   WET( 18,  6)   WET( 18,  7)   WET( 19,  1)   
    WET( 19,  2)   WET( 19,  3)   WET( 19,  4)   


     7 CALLS TO PCG ROUTINE FOR TIME STEP   1 IN STRESS PERIOD    3
    66 TOTAL ITERATIONS

 MAXIMUM HEAD CHANGE FOR EACH ITERATION (1 INDICATES THE FIRST INNER ITERATION):

    HEAD CHANGE    HEAD CHANGE    HEAD CHANGE    HEAD CHANGE    HEAD CHANGE 
   LAYER,ROW,COL  LAYER,ROW,COL  LAYER,ROW,COL  LAYER,ROW,COL  LAYER,ROW,COL
 ---------------------------------------------------------------------------
  1   1.079      0 -0.1735      0 -0.3434E-01  0  0.2873E-01  0  0.1749E-01
   (  6,  2,  2)  ( 12,  7,  2)  ( 14,  1, 24)  ( 14,  3, 26)  ( 14, 23,  1)
  0 -0.7787E-02  0 -0.4405E-02  0 -0.1671E-02  0 -0.1189E-02  0  0.9864E-03
   ( 12,  2,  2)  ( 14,  3, 36)  ( 14,  2, 38)  ( 14, 27, 27)  ( 11, 21,  1)
  0  0.5654E-03  0  0.4012E-03  0  0.2617E-03  0  0.2857E-03  0  0.1093E-03
   ( 10,  1, 20)  ( 13,  3,  1)  ( 11,  2,  2)  ( 11,  2,  2)  ( 10,  2,  2)
  0 -0.8124E-04  1  0.6503      0  0.1995      0  0.6228E-01  0  0.3141E-01
   ( 14, 27,  7)  (  8,  7,  2)  ( 14,  2,  2)  ( 14,  1, 24)  ( 14,  1, 22)
  0  0.1417E-01  0  0.8893E-02  0  0.7288E-02  0  0.2789E-02  0  0.1489E-02
   ( 14,  3,  1)  (  9,  2,  2)  (  9,  2,  2)  ( 14, 28,  1)  ( 14, 27, 27)
  0  0.7869E-03  0  0.4374E-03  0  0.3031E-03  0 -0.1913E-03  0 -0.1457E-03
   ( 14, 27, 34)  ( 14, 33, 33)  (  8,  2,  2)  ( 14, 29, 24)  ( 12, 21, 21)
  0 -0.1391E-03  0  0.4620E-04  1 -0.6350E-01  0 -0.4360E-01  0 -0.1719E-01
   ( 14,  2,  2)  ( 14, 20, 25)  (  6,  2,  1)  (  6,  1,  2)  (  5,  2,  2)
  0  0.3948E-02  0  0.7865E-02  0 -0.9620E-03  0 -0.2249E-02  0 -0.4366E-03
   ( 14,  1,  1)  ( 14,  1,  1)  (  7,  1,  1)  (  7,  1,  1)  ( 14,  2,  2)
  0 -0.5323E-03  0 -0.1784E-03  0 -0.1845E-03  0 -0.1487E-03  0  0.4212E-04
   ( 14,  2,  2)  ( 14,  2,  2)  ( 14,  1,  1)  ( 14,  1,  1)  (  9,  1,  1)
  1 -0.1057E-01  0 -0.7293E-02  0 -0.1536E-02  0  0.1698E-02  0  0.1025E-02
   (  6,  1,  2)  (  6,  1,  2)  (  5,  2,  2)  ( 14,  1,  1)  ( 14,  1,  1)
  0  0.8416E-03  0 -0.3476E-03  0 -0.3276E-03  0 -0.6385E-04  1 -0.1849E-02
   ( 14,  1,  1)  (  7,  1,  1)  (  7,  1,  1)  ( 14,  2,  2)  (  6,  2,  1)
  0 -0.1162E-02  0  0.2087E-03  0  0.3379E-03  0  0.1855E-03  0  0.1719E-03
   (  6,  2,  1)  ( 14, 18, 31)  ( 14,  1,  1)  ( 14,  1,  1)  ( 14,  1,  1)
  0  0.7194E-04  1 -0.2754E-03  0 -0.1019E-03  0 -0.1392E-03  0  0.3539E-04
   (  9,  2,  2)  (  6,  1,  2)  (  6,  1,  2)  (  6,  1,  2)  ( 14,  1,  2)
  1  0.3192E-04
   ( 14,  1,  1)

 MAXIMUM RESIDUAL FOR EACH ITERATION (1 INDICATES THE FIRST INNER ITERATION):

    RESIDUAL       RESIDUAL       RESIDUAL       RESIDUAL       RESIDUAL    
   LAYER,ROW,COL  LAYER,ROW,COL  LAYER,ROW,COL  LAYER,ROW,COL  LAYER,ROW,COL
 ---------------------------------------------------------------------------
  1   16.62      0  -3.433      0  -1.979      0   1.074      0 -0.7021    
   ( 10,  2,  7)  (  9,  5,  6)  (  9,  6,  5)  ( 14,  6,  2)  ( 12,  3,  6)
  0  0.2403      0 -0.2400      0 -0.1191      0  0.9550E-01  0  0.6473E-01
   ( 14,  7,  2)  (  9,  2,  2)  ( 13,  2,  6)  ( 14,  2,  2)  (  7,  2,  2)
  0 -0.3454E-01  0 -0.3269E-01  0 -0.2114E-01  0  0.7834E-02  0  0.9151E-02
   ( 13,  3,  6)  (  9,  2,  2)  (  9,  2,  2)  (  9,  3,  6)  ( 14,  2,  2)
  0  0.5026E-02  1  -37.53      0   6.519      0   3.691      0   2.281    
   ( 14,  2,  3)  (  8,  2,  7)  (  7,  3,  1)  (  9,  7,  2)  (  7,  3,  1)
  0   1.637      0   1.130      0  0.7199      0  0.5034      0  0.3553    
   (  7,  3,  1)  (  7,  3,  1)  (  7,  3,  1)  (  7,  3,  1)  (  7,  3,  1)
  0  0.2524      0  0.1910      0  0.1445      0  0.1048      0  0.6988E-01
   (  7,  3,  1)  (  7,  3,  1)  (  7,  3,  1)  (  7,  3,  1)  (  7,  3,  1)
  0  0.3932E-01  0 -0.2075E-01  1  -18.33      0  -5.173      0  -2.407    
   (  7,  3,  1)  (  9,  1,  7)  (  6,  1,  3)  (  6,  1,  3)  (  6,  1,  3)
  0  -1.909      0 -0.7976      0 -0.4892      0  0.1917      0  0.1498    
   (  6,  1,  3)  (  6,  1,  3)  (  6,  1,  3)  (  7,  1,  3)  (  7,  1,  3)
  0  0.9359E-01  0  0.6539E-01  0  0.4581E-01  0  0.2819E-01  0 -0.1961E-01
   (  7,  1,  3)  (  7,  1,  3)  (  7,  1,  3)  (  7,  1,  3)  (  9,  1,  1)
  1  -3.133      0 -0.9269      0 -0.5963      0 -0.3673      0 -0.2396    
   (  6,  1,  3)  (  6,  1,  3)  (  6,  1,  3)  (  6,  1,  3)  (  6,  1,  3)
  0  0.1025      0  0.5468E-01  0  0.2785E-01  0  0.2187E-01  1 -0.5375    
   (  7,  1,  1)  (  7,  1,  1)  (  7,  1,  3)  (  7,  3,  1)  (  6,  1,  3)
  0 -0.2192      0 -0.1252      0 -0.7266E-01  0 -0.5173E-01  0 -0.2813E-01
   (  6,  1,  3)  (  6,  1,  3)  (  6,  1,  3)  (  6,  1,  3)  (  6,  1,  3)
  0  0.1459E-01  1 -0.9487E-01  0 -0.7339E-01  0 -0.2733E-01  0 -0.1574E-01
   (  7,  1,  1)  (  6,  3,  1)  (  6,  3,  1)  (  6,  3,  1)  (  6,  3,  1)
  1 -0.2704E-01
   (  6,  1,  3)



 OUTPUT CONTROL WAS SPECIFIED FOR A NONEXISTENT TIME STEP
 OR OUTPUT CONTROL DATA ARE NOT ENTERED IN ASCENDING ORDER
 OUTPUT CONTROL STRESS PERIOD    2   TIME STEP   10
 MODEL STRESS PERIOD    3   TIME STEP    1
 APPLYING THE SPECIFIED OUTPUT CONTROL TO THE CURRENT TIME STEP

 OUTPUT CONTROL FOR STRESS PERIOD    3   TIME STEP    1
    SAVE BUDGET
    PRINT HEAD FOR ALL LAYERS
 UBDSV1 SAVING "         STORAGE" ON UNIT  32 AT TIME STEP  1, STRESS PERIOD   3
 UBDSV2 SAVING "   CONSTANT HEAD" ON UNIT  32 AT TIME STEP  1, STRESS PERIOD   3
 UBDSV1 SAVING "FLOW RIGHT FACE " ON UNIT  32 AT TIME STEP  1, STRESS PERIOD   3
 UBDSV1 SAVING "FLOW FRONT FACE " ON UNIT  32 AT TIME STEP  1, STRESS PERIOD   3
 UBDSV1 SAVING "FLOW LOWER FACE " ON UNIT  32 AT TIME STEP  1, STRESS PERIOD   3
 UBDSV3 SAVING "        RECHARGE" ON UNIT  32 AT TIME STEP  1, STRESS PERIOD   3
1
              HEAD IN LAYER   1 AT END OF TIME STEP   1 IN STRESS PERIOD    3
  ---------------------------------------------------------------------------

            1           2           3           4           5           6           7           8           9          10
           11          12          13          14          15          16          17          18          19          20
           21          22          23          24          25          26          27          28          29          30
           31          32          33          34          35          36          37          38          39          40
 ........................................................................................................................
   1   -99.90      -99.90      -99.90      -99.90      -99.90      -99.90      -99.90      -99.90      -99.90      -99.90    
       -99.90      -99.90      -99.90      -99.90      -99.90      -99.90      -99.90      -99.90      -99.90      -99.90    
       -99.90      -99.90      -99.90      -99.90      -99.90      -99.90      -99.90      -99.90      -99.90      -99.90    
       -99.90      -99.90      -99.90      -99.90      -99.90      -99.90      -99.90      -99.90      -99.90      -99.90    
   2   -99.90      -99.90      -99.90      -99.90      -99.90      -99.90      -99.90      -99.90      -99.90      -99.90    
       -99.90      -99.90      -99.90      -99.90      -99.90      -99.90      -99.90      -99.90      -99.90      -99.90    
       -99.90      -99.90      -99.90      -99.90      -99.90      -99.90      -99.90      -99.90      -99.90      -99.90    
       -99.90      -99.90      -99.90      -99.90      -99.90      -99.90      -99.90      -99.90      -99.90      -99.90    
   3   -99.90      -99.90      -99.90      -99.90      -99.90      -99.90      -99.90      -99.90      -99.90      -99.90    
       -99.90      -99.90      -99.90      -99.90      -99.90      -99.90      -99.90      -99.90      -99.90      -99.90    
       -99.90      -99.90      -99.90      -99.90      -99.90      -99.90      -99.90      -99.90      -99.90      -99.90    
       -99.90      -99.90      -99.90      -99.90      -99.90      -99.90      -99.90      -99.90      -99.90      -99.90    
   4   -99.90      -99.90      -99.90      -99.90      -99.90      -99.90      -99.90      -99.90      -99.90      -99.90    
       -99.90      -99.90      -99.90      -99.90      -99.90      -99.90      -99.90      -99.90      -99.90      -99.90    
       -99.90      -99.90      -99.90      -99.90      -99.90      -99.90      -99.90      -99.90      -99.90      -99.90    
       -99.90      -99.90      -99.90      -99.90      -99.90      -99.90      -99.90      -99.90      -99.90      -99.90    
   5   -99.90      -99.90      -99.90      -99.90      -99.90      -99.90      -99.90      -99.90      -99.90      -99.90    
       -99.90      -99.90      -99.90      -99.90      -99.90      -99.90      -99.90      -99.90      -99.90      -99.90    
       -99.90      -99.90      -99.90      -99.90      -99.90      -99.90      -99.90      -99.90      -99.90      -99.90    
       -99.90      -99.90      -99.90      -99.90      -99.90      -99.90      -99.90      -99.90      -99.90      -99.90    
   6   -99.90      -99.90      -99.90      -99.90      -99.90      -99.90      -99.90      -99.90      -99.90      -99.90    
       -99.90      -99.90      -99.90      -99.90      -99.90      -99.90      -99.90      -99.90      -99.90      -99.90    
       -99.90      -99.90      -99.90      -99.90      -99.90      -99.90      -99.90      -99.90      -99.90      -99.90    
       -99.90      -99.90      -99.90      -99.90      -99.90      -99.90      -99.90      -99.90      -99.90      -99.90    
   7   -99.90      -99.90      -99.90      -99.90      -99.90      -99.90      -99.90      -99.90      -99.90      -99.90    
       -99.90      -99.90      -99.90      -99.90      -99.90      -99.90      -99.90      -99.90      -99.90      -99.90    
       -99.90      -99.90      -99.90      -99.90      -99.90      -99.90      -99.90      -99.90      -99.90      -99.90    
       -99.90      -99.90      -99.90      -99.90      -99.90      -99.90      -99.90      -99.90      -99.90      -99.90    
   8   -99.90      -99.90      -99.90      -99.90      -99.90      -99.90      -99.90      -99.90      -99.90      -99.90    
       -99.90      -99.90      -99.90      -99.90      -99.90      -99.90      -99.90      -99.90      -99.90      -99.90    
       -99.90      -99.90      -99.90      -99.90      -99.90      -99.90      -99.90      -99.90      -99.90      -99.90    
       -99.90      -99.90      -99.90      -99.90      -99.90      -99.90      -99.90      -99.90      -99.90      -99.90    
   9   -99.90      -99.90      -99.90      -99.90      -99.90      -99.90      -99.90      -99.90      -99.90      -99.90    
       -99.90      -99.90      -99.90      -99.90      -99.90      -99.90      -99.90      -99.90      -99.90      -99.90    
       -99.90      -99.90      -99.90      -99.90      -99.90      -99.90      -99.90      -99.90      -99.90      -99.90    
       -99.90      -99.90      -99.90      -99.90      -99.90      -99.90      -99.90      -99.90      -99.90      -99.90    
  10   -99.90      -99.90      -99.90      -99.90      -99.90      -99.90      -99.90      -99.90      -99.90      -99.90    
       -99.90      -99.90      -99.90      -99.90      -99.90      -99.90      -99.90      -99.90      -99.90      -99.90    
       -99.90      -99.90      -99.90      -99.90      -99.90      -99.90      -99.90      -99.90      -99.90      -99.90    
       -99.90      -99.90      -99.90      -99.90      -99.90      -99.90      -99.90      -99.90      -99.90      -99.90    
  11   -99.90      -99.90      -99.90      -99.90      -99.90      -99.90      -99.90      -99.90      -99.90      -99.90    
       -99.90      -99.90      -99.90      -99.90      -99.90      -99.90      -99.90      -99.90      -99.90      -99.90    
       -99.90      -99.90      -99.90      -99.90      -99.90      -99.90      -99.90      -99.90      -99.90      -99.90    
       -99.90      -99.90      -99.90      -99.90      -99.90      -99.90      -99.90      -99.90      -99.90      -99.90    
  12   -99.90      -99.90      -99.90      -99.90      -99.90      -99.90      -99.90      -99.90      -99.90      -99.90    
       -99.90      -99.90      -99.90      -99.90      -99.90      -99.90      -99.90      -99.90      -99.90      -99.90    
       -99.90      -99.90      -99.90      -99.90      -99.90      -99.90      -99.90      -99.90      -99.90      -99.90    
       -99.90      -99.90      -99.90      -99.90      -99.90      -99.90      -99.90      -99.90      -99.90      -99.90    
  13   -99.90      -99.90      -99.90      -99.90      -99.90      -99.90      -99.90      -99.90      -99.90      -99.90    
       -99.90      -99.90      -99.90      -99.90      -99.90      -99.90      -99.90      -99.90      -99.90      -99.90    
       -99.90      -99.90      -99.90      -99.90      -99.90      -99.90      -99.90      -99.90      -99.90      -99.90    
       -99.90      -99.90      -99.90      -99.90      -99.90      -99.90      -99.90      -99.90      -99.90      -99.90    
  14   -99.90      -99.90      -99.90      -99.90      -99.90      -99.90      -99.90      -99.90      -99.90      -99.90    
       -99.90      -99.90      -99.90      -99.90      -99.90      -99.90      -99.90      -99.90      -99.90      -99.90    
       -99.90      -99.90      -99.90      -99.90      -99.90      -99.90      -99.90      -99.90      -99.90      -99.90    
       -99.90      -99.90      -99.90      -99.90      -99.90      -99.90      -99.90      -99.90      -99.90      -99.90    
  15   -99.90      -99.90      -99.90      -99.90      -99.90      -99.90      -99.90      -99.90      -99.90      -99.90    
       -99.90      -99.90      -99.90      -99.90      -99.90      -99.90      -99.90      -99.90      -99.90      -99.90    
       -99.90      -99.90      -99.90      -99.90      -99.90      -99.90      -99.90      -99.90      -99.90      -99.90    
       -99.90      -99.90      -99.90      -99.90      -99.90      -99.90      -99.90      -99.90      -99.90      -99.90    
  16   -99.90      -99.90      -99.90      -99.90      -99.90      -99.90      -99.90      -99.90      -99.90      -99.90    
       -99.90      -99.90      -99.90      -99.90      -99.90      -99.90      -99.90      -99.90      -99.90      -99.90    
       -99.90      -99.90      -99.90      -99.90      -99.90      -99.90      -99.90      -99.90      -99.90      -99.90    
       -99.90      -99.90      -99.90      -99.90      -99.90      -99.90      -99.90      -99.90      -99.90      -99.90    
  17   -99.90      -99.90      -99.90      -99.90      -99.90      -99.90      -99.90      -99.90      -99.90      -99.90    
       -99.90      -99.90      -99.90      -99.90      -99.90      -99.90      -99.90      -99.90      -99.90      -99.90    
       -99.90      -99.90      -99.90      -99.90      -99.90      -99.90      -99.90      -99.90      -99.90      -99.90    
       -99.90      -99.90      -99.90      -99.90      -99.90      -99.90      -99.90      -99.90      -99.90      -99.90    
  18   -99.90      -99.90      -99.90      -99.90      -99.90      -99.90      -99.90      -99.90      -99.90      -99.90    
       -99.90      -99.90      -99.90      -99.90      -99.90      -99.90      -99.90      -99.90      -99.90      -99.90    
       -99.90      -99.90      -99.90      -99.90      -99.90      -99.90      -99.90      -99.90      -99.90      -99.90    
       -99.90      -99.90      -99.90      -99.90      -99.90      -99.90      -99.90      -99.90      -99.90      -99.90    
  19   -99.90      -99.90      -99.90      -99.90      -99.90      -99.90      -99.90      -99.90      -99.90      -99.90    
       -99.90      -99.90      -99.90      -99.90      -99.90      -99.90      -99.90      -99.90      -99.90      -99.90    
       -99.90      -99.90      -99.90      -99.90      -99.90      -99.90      -99.90      -99.90      -99.90      -99.90    
       -99.90      -99.90      -99.90      -99.90      -99.90      -99.90      -99.90      -99.90      -99.90      -99.90    
  20   -99.90      -99.90      -99.90      -99.90      -99.90      -99.90      -99.90      -99.90      -99.90      -99.90    
       -99.90      -99.90      -99.90      -99.90      -99.90      -99.90      -99.90      -99.90      -99.90      -99.90    
       -99.90      -99.90      -99.90      -99.90      -99.90      -99.90      -99.90      -99.90      -99.90      -99.90    
       -99.90      -99.90      -99.90      -99.90      -99.90      -99.90      -99.90      -99.90      -99.90      -99.90    
  21   -99.90      -99.90      -99.90      -99.90      -99.90      -99.90      -99.90      -99.90      -99.90      -99.90    
       -99.90      -99.90      -99.90      -99.90      -99.90      -99.90      -99.90      -99.90      -99.90      -99.90    
       -99.90      -99.90      -99.90      -99.90      -99.90      -99.90      -99.90      -99.90      -99.90      -99.90    
       -99.90      -99.90      -99.90      -99.90      -99.90      -99.90      -99.90      -99.90      -99.90      -99.90    
  22   -99.90      -99.90      -99.90      -99.90      -99.90      -99.90      -99.90      -99.90      -99.90      -99.90    
       -99.90      -99.90      -99.90      -99.90      -99.90      -99.90      -99.90      -99.90      -99.90      -99.90    
       -99.90      -99.90      -99.90      -99.90      -99.90      -99.90      -99.90      -99.90      -99.90      -99.90    
       -99.90      -99.90      -99.90      -99.90      -99.90      -99.90      -99.90      -99.90      -99.90      -99.90    
  23   -99.90      -99.90      -99.90      -99.90      -99.90      -99.90      -99.90      -99.90      -99.90      -99.90    
       -99.90      -99.90      -99.90      -99.90      -99.90      -99.90      -99.90      -99.90      -99.90      -99.90    
       -99.90      -99.90      -99.90      -99.90      -99.90      -99.90      -99.90      -99.90      -99.90      -99.90    
       -99.90      -99.90      -99.90      -99.90      -99.90      -99.90      -99.90      -99.90      -99.90      -99.90    
  24   -99.90      -99.90      -99.90      -99.90      -99.90      -99.90      -99.90      -99.90      -99.90      -99.90    
       -99.90      -99.90      -99.90      -99.90      -99.90      -99.90      -99.90      -99.90      -99.90      -99.90    
       -99.90      -99.90      -99.90      -99.90      -99.90      -99.90      -99.90      -99.90      -99.90      -99.90    
       -99.90      -99.90      -99.90      -99.90      -99.90      -99.90      -99.90      -99.90      -99.90      -99.90    
  25   -99.90      -99.90      -99.90      -99.90      -99.90      -99.90      -99.90      -99.90      -99.90      -99.90    
       -99.90      -99.90      -99.90      -99.90      -99.90      -99.90      -99.90      -99.90      -99.90      -99.90    
       -99.90      -99.90      -99.90      -99.90      -99.90      -99.90      -99.90      -99.90      -99.90      -99.90    
       -99.90      -99.90      -99.90      -99.90      -99.90      -99.90      -99.90      -99.90      -99.90      -99.90    
  26   -99.90      -99.90      -99.90      -99.90      -99.90      -99.90      -99.90      -99.90      -99.90      -99.90    
       -99.90      -99.90      -99.90      -99.90      -99.90      -99.90      -99.90      -99.90      -99.90      -99.90    
       -99.90      -99.90      -99.90      -99.90      -99.90      -99.90      -99.90      -99.90      -99.90      -99.90    
       -99.90      -99.90      -99.90      -99.90      -99.90      -99.90      -99.90      -99.90      -99.90      -99.90    
  27   -99.90      -99.90      -99.90      -99.90      -99.90      -99.90      -99.90      -99.90      -99.90      -99.90    
       -99.90      -99.90      -99.90      -99.90      -99.90      -99.90      -99.90      -99.90      -99.90      -99.90    
       -99.90      -99.90      -99.90      -99.90      -99.90      -99.90      -99.90      -99.90      -99.90      -99.90    
       -99.90      -99.90      -99.90      -99.90      -99.90      -99.90      -99.90      -99.90      -99.90      -99.90    
  28   -99.90      -99.90      -99.90      -99.90      -99.90      -99.90      -99.90      -99.90      -99.90      -99.90    
       -99.90      -99.90      -99.90      -99.90      -99.90      -99.90      -99.90      -99.90      -99.90      -99.90    
       -99.90      -99.90      -99.90      -99.90      -99.90      -99.90      -99.90      -99.90      -99.90      -99.90    
       -99.90      -99.90      -99.90      -99.90      -99.90      -99.90      -99.90      -99.90      -99.90      -99.90    
  29   -99.90      -99.90      -99.90      -99.90      -99.90      -99.90      -99.90      -99.90      -99.90      -99.90    
       -99.90      -99.90      -99.90      -99.90      -99.90      -99.90      -99.90      -99.90      -99.90      -99.90    
       -99.90      -99.90      -99.90      -99.90      -99.90      -99.90      -99.90      -99.90      -99.90      -99.90    
       -99.90      -99.90      -99.90      -99.90      -99.90      -99.90      -99.90      -99.90      -99.90      -99.90    
  30   -99.90      -99.90      -99.90      -99.90      -99.90      -99.90      -99.90      -99.90      -99.90      -99.90    
       -99.90      -99.90      -99.90      -99.90      -99.90      -99.90      -99.90      -99.90      -99.90      -99.90    
       -99.90      -99.90      -99.90      -99.90      -99.90      -99.90      -99.90      -99.90      -99.90      -99.90    
       -99.90      -99.90      -99.90      -99.90      -99.90      -99.90      -99.90      -99.90      -99.90      -99.90    
  31   -99.90      -99.90      -99.90      -99.90      -99.90      -99.90      -99.90      -99.90      -99.90      -99.90    
       -99.90      -99.90      -99.90      -99.90      -99.90      -99.90      -99.90      -99.90      -99.90      -99.90    
       -99.90      -99.90      -99.90      -99.90      -99.90      -99.90      -99.90      -99.90      -99.90      -99.90    
       -99.90      -99.90      -99.90      -99.90      -99.90      -99.90      -99.90      -99.90      -99.90      -99.90    
  32   -99.90      -99.90      -99.90      -99.90      -99.90      -99.90      -99.90      -99.90      -99.90      -99.90    
       -99.90      -99.90      -99.90      -99.90      -99.90      -99.90      -99.90      -99.90      -99.90      -99.90    
       -99.90      -99.90      -99.90      -99.90      -99.90      -99.90      -99.90      -99.90      -99.90      -99.90    
       -99.90      -99.90      -99.90      -99.90      -99.90      -99.90      -99.90      -99.90      -99.90      -99.90    
  33   -99.90      -99.90      -99.90      -99.90      -99.90      -99.90      -99.90      -99.90      -99.90      -99.90    
       -99.90      -99.90      -99.90      -99.90      -99.90      -99.90      -99.90      -99.90      -99.90      -99.90    
       -99.90      -99.90      -99.90      -99.90      -99.90      -99.90      -99.90      -99.90      -99.90      -99.90    
       -99.90      -99.90      -99.90      -99.90      -99.90      -99.90      -99.90      -99.90      -99.90      -99.90    
  34   -99.90      -99.90      -99.90      -99.90      -99.90      -99.90      -99.90      -99.90      -99.90      -99.90    
       -99.90      -99.90      -99.90      -99.90      -99.90      -99.90      -99.90      -99.90      -99.90      -99.90    
       -99.90      -99.90      -99.90      -99.90      -99.90      -99.90      -99.90      -99.90      -99.90      -99.90    
       -99.90      -99.90      -99.90      -99.90      -99.90      -99.90      -99.90      -99.90      -99.90      -99.90    
  35   -99.90      -99.90      -99.90      -99.90      -99.90      -99.90      -99.90      -99.90      -99.90      -99.90    
       -99.90      -99.90      -99.90      -99.90      -99.90      -99.90      -99.90      -99.90      -99.90      -99.90    
       -99.90      -99.90      -99.90      -99.90      -99.90      -99.90      -99.90      -99.90      -99.90      -99.90    
       -99.90      -99.90      -99.90      -99.90      -99.90      -99.90      -99.90      -99.90      -99.90      -99.90    
  36   -99.90      -99.90      -99.90      -99.90      -99.90      -99.90      -99.90      -99.90      -99.90      -99.90    
       -99.90      -99.90      -99.90      -99.90      -99.90      -99.90      -99.90      -99.90      -99.90      -99.90    
       -99.90      -99.90      -99.90      -99.90      -99.90      -99.90      -99.90      -99.90      -99.90      -99.90    
       -99.90      -99.90      -99.90      -99.90      -99.90      -99.90      -99.90      -99.90      -99.90      -99.90    
  37   -99.90      -99.90      -99.90      -99.90      -99.90      -99.90      -99.90      -99.90      -99.90      -99.90    
       -99.90      -99.90      -99.90      -99.90      -99.90      -99.90      -99.90      -99.90      -99.90      -99.90    
       -99.90      -99.90      -99.90      -99.90      -99.90      -99.90      -99.90      -99.90      -99.90      -99.90    
       -99.90      -99.90      -99.90      -99.90      -99.90      -99.90      -99.90      -99.90      -99.90      -99.90    
  38   -99.90      -99.90      -99.90      -99.90      -99.90      -99.90      -99.90      -99.90      -99.90      -99.90    
       -99.90      -99.90      -99.90      -99.90      -99.90      -99.90      -99.90      -99.90      -99.90      -99.90    
       -99.90      -99.90      -99.90      -99.90      -99.90      -99.90      -99.90      -99.90      -99.90      -99.90    
       -99.90      -99.90      -99.90      -99.90      -99.90      -99.90      -99.90      -99.90      -99.90      -99.90    
  39   -99.90      -99.90      -99.90      -99.90      -99.90      -99.90      -99.90      -99.90      -99.90      -99.90    
       -99.90      -99.90      -99.90      -99.90      -99.90      -99.90      -99.90      -99.90      -99.90      -99.90    
       -99.90      -99.90      -99.90      -99.90      -99.90      -99.90      -99.90      -99.90      -99.90      -99.90    
       -99.90      -99.90      -99.90      -99.90      -99.90      -99.90      -99.90      -99.90      -99.90      -99.90    
  40   -99.90      -99.90      -99.90      -99.90      -99.90      -99.90      -99.90      -99.90      -99.90      -99.90    
       -99.90      -99.90      -99.90      -99.90      -99.90      -99.90      -99.90      -99.90      -99.90      -99.90    
       -99.90      -99.90      -99.90      -99.90      -99.90      -99.90      -99.90      -99.90      -99.90      -99.90    
       -99.90      -99.90      -99.90      -99.90      -99.90      -99.90      -99.90      -99.90      -99.90      -99.90    
1
              HEAD IN LAYER   2 AT END OF TIME STEP   1 IN STRESS PERIOD    3
  ---------------------------------------------------------------------------

            1           2           3           4           5           6           7           8           9          10
           11          12          13          14          15          16          17          18          19          20
           21          22          23          24          25          26          27          28          29          30
           31          32          33          34          35          36          37          38          39          40
 ........................................................................................................................
   1   -99.90      -99.90      -99.90      -99.90      -99.90      -99.90      -99.90      -99.90      -99.90      -99.90    
       -99.90      -99.90      -99.90      -99.90      -99.90      -99.90      -99.90      -99.90      -99.90      -99.90    
       -99.90      -99.90      -99.90      -99.90      -99.90      -99.90      -99.90      -99.90      -99.90      -99.90    
       -99.90      -99.90      -99.90      -99.90      -99.90      -99.90      -99.90      -99.90      -99.90      -99.90    
   2   -99.90      -99.90      -99.90      -99.90      -99.90      -99.90      -99.90      -99.90      -99.90      -99.90    
       -99.90      -99.90      -99.90      -99.90      -99.90      -99.90      -99.90      -99.90      -99.90      -99.90    
       -99.90      -99.90      -99.90      -99.90      -99.90      -99.90      -99.90      -99.90      -99.90      -99.90    
       -99.90      -99.90      -99.90      -99.90      -99.90      -99.90      -99.90      -99.90      -99.90      -99.90    
   3   -99.90      -99.90      -99.90      -99.90      -99.90      -99.90      -99.90      -99.90      -99.90      -99.90    
       -99.90      -99.90      -99.90      -99.90      -99.90      -99.90      -99.90      -99.90      -99.90      -99.90    
       -99.90      -99.90      -99.90      -99.90      -99.90      -99.90      -99.90      -99.90      -99.90      -99.90    
       -99.90      -99.90      -99.90      -99.90      -99.90      -99.90      -99.90      -99.90      -99.90      -99.90    
   4   -99.90      -99.90      -99.90      -99.90      -99.90      -99.90      -99.90      -99.90      -99.90      -99.90    
       -99.90      -99.90      -99.90      -99.90      -99.90      -99.90      -99.90      -99.90      -99.90      -99.90    
       -99.90      -99.90      -99.90      -99.90      -99.90      -99.90      -99.90      -99.90      -99.90      -99.90    
       -99.90      -99.90      -99.90      -99.90      -99.90      -99.90      -99.90      -99.90      -99.90      -99.90    
   5   -99.90      -99.90      -99.90      -99.90      -99.90      -99.90      -99.90      -99.90      -99.90      -99.90    
       -99.90      -99.90      -99.90      -99.90      -99.90      -99.90      -99.90      -99.90      -99.90      -99.90    
       -99.90      -99.90      -99.90      -99.90      -99.90      -99.90      -99.90      -99.90      -99.90      -99.90    
       -99.90      -99.90      -99.90      -99.90      -99.90      -99.90      -99.90      -99.90      -99.90      -99.90    
   6   -99.90      -99.90      -99.90      -99.90      -99.90      -99.90      -99.90      -99.90      -99.90      -99.90    
       -99.90      -99.90      -99.90      -99.90      -99.90      -99.90      -99.90      -99.90      -99.90      -99.90    
       -99.90      -99.90      -99.90      -99.90      -99.90      -99.90      -99.90      -99.90      -99.90      -99.90    
       -99.90      -99.90      -99.90      -99.90      -99.90      -99.90      -99.90      -99.90      -99.90      -99.90    
   7   -99.90      -99.90      -99.90      -99.90      -99.90      -99.90      -99.90      -99.90      -99.90      -99.90    
       -99.90      -99.90      -99.90      -99.90      -99.90      -99.90      -99.90      -99.90      -99.90      -99.90    
       -99.90      -99.90      -99.90      -99.90      -99.90      -99.90      -99.90      -99.90      -99.90      -99.90    
       -99.90      -99.90      -99.90      -99.90      -99.90      -99.90      -99.90      -99.90      -99.90      -99.90    
   8   -99.90      -99.90      -99.90      -99.90      -99.90      -99.90      -99.90      -99.90      -99.90      -99.90    
       -99.90      -99.90      -99.90      -99.90      -99.90      -99.90      -99.90      -99.90      -99.90      -99.90    
       -99.90      -99.90      -99.90      -99.90      -99.90      -99.90      -99.90      -99.90      -99.90      -99.90    
       -99.90      -99.90      -99.90      -99.90      -99.90      -99.90      -99.90      -99.90      -99.90      -99.90    
   9   -99.90      -99.90      -99.90      -99.90      -99.90      -99.90      -99.90      -99.90      -99.90      -99.90    
       -99.90      -99.90      -99.90      -99.90      -99.90      -99.90      -99.90      -99.90      -99.90      -99.90    
       -99.90      -99.90      -99.90      -99.90      -99.90      -99.90      -99.90      -99.90      -99.90      -99.90    
       -99.90      -99.90      -99.90      -99.90      -99.90      -99.90      -99.90      -99.90      -99.90      -99.90    
  10   -99.90      -99.90      -99.90      -99.90      -99.90      -99.90      -99.90      -99.90      -99.90      -99.90    
       -99.90      -99.90      -99.90      -99.90      -99.90      -99.90      -99.90      -99.90      -99.90      -99.90    
       -99.90      -99.90      -99.90      -99.90      -99.90      -99.90      -99.90      -99.90      -99.90      -99.90    
       -99.90      -99.90      -99.90      -99.90      -99.90      -99.90      -99.90      -99.90      -99.90      -99.90    
  11   -99.90      -99.90      -99.90      -99.90      -99.90      -99.90      -99.90      -99.90      -99.90      -99.90    
       -99.90      -99.90      -99.90      -99.90      -99.90      -99.90      -99.90      -99.90      -99.90      -99.90    
       -99.90      -99.90      -99.90      -99.90      -99.90      -99.90      -99.90      -99.90      -99.90      -99.90    
       -99.90      -99.90      -99.90      -99.90      -99.90      -99.90      -99.90      -99.90      -99.90      -99.90    
  12   -99.90      -99.90      -99.90      -99.90      -99.90      -99.90      -99.90      -99.90      -99.90      -99.90    
       -99.90      -99.90      -99.90      -99.90      -99.90      -99.90      -99.90      -99.90      -99.90      -99.90    
       -99.90      -99.90      -99.90      -99.90      -99.90      -99.90      -99.90      -99.90      -99.90      -99.90    
       -99.90      -99.90      -99.90      -99.90      -99.90      -99.90      -99.90      -99.90      -99.90      -99.90    
  13   -99.90      -99.90      -99.90      -99.90      -99.90      -99.90      -99.90      -99.90      -99.90      -99.90    
       -99.90      -99.90      -99.90      -99.90      -99.90      -99.90      -99.90      -99.90      -99.90      -99.90    
       -99.90      -99.90      -99.90      -99.90      -99.90      -99.90      -99.90      -99.90      -99.90      -99.90    
       -99.90      -99.90      -99.90      -99.90      -99.90      -99.90      -99.90      -99.90      -99.90      -99.90    
  14   -99.90      -99.90      -99.90      -99.90      -99.90      -99.90      -99.90      -99.90      -99.90      -99.90    
       -99.90      -99.90      -99.90      -99.90      -99.90      -99.90      -99.90      -99.90      -99.90      -99.90    
       -99.90      -99.90      -99.90      -99.90      -99.90      -99.90      -99.90      -99.90      -99.90      -99.90    
       -99.90      -99.90      -99.90      -99.90      -99.90      -99.90      -99.90      -99.90      -99.90      -99.90    
  15   -99.90      -99.90      -99.90      -99.90      -99.90      -99.90      -99.90      -99.90      -99.90      -99.90    
       -99.90      -99.90      -99.90      -99.90      -99.90      -99.90      -99.90      -99.90      -99.90      -99.90    
       -99.90      -99.90      -99.90      -99.90      -99.90      -99.90      -99.90      -99.90      -99.90      -99.90    
       -99.90      -99.90      -99.90      -99.90      -99.90      -99.90      -99.90      -99.90      -99.90      -99.90    
  16   -99.90      -99.90      -99.90      -99.90      -99.90      -99.90      -99.90      -99.90      -99.90      -99.90    
       -99.90      -99.90      -99.90      -99.90      -99.90      -99.90      -99.90      -99.90      -99.90      -99.90    
       -99.90      -99.90      -99.90      -99.90      -99.90      -99.90      -99.90      -99.90      -99.90      -99.90    
       -99.90      -99.90      -99.90      -99.90      -99.90      -99.90      -99.90      -99.90      -99.90      -99.90    
  17   -99.90      -99.90      -99.90      -99.90      -99.90      -99.90      -99.90      -99.90      -99.90      -99.90    
       -99.90      -99.90      -99.90      -99.90      -99.90      -99.90      -99.90      -99.90      -99.90      -99.90    
       -99.90      -99.90      -99.90      -99.90      -99.90      -99.90      -99.90      -99.90      -99.90      -99.90    
       -99.90      -99.90      -99.90      -99.90      -99.90      -99.90      -99.90      -99.90      -99.90      -99.90    
  18   -99.90      -99.90      -99.90      -99.90      -99.90      -99.90      -99.90      -99.90      -99.90      -99.90    
       -99.90      -99.90      -99.90      -99.90      -99.90      -99.90      -99.90      -99.90      -99.90      -99.90    
       -99.90      -99.90      -99.90      -99.90      -99.90      -99.90      -99.90      -99.90      -99.90      -99.90    
       -99.90      -99.90      -99.90      -99.90      -99.90      -99.90      -99.90      -99.90      -99.90      -99.90    
  19   -99.90      -99.90      -99.90      -99.90      -99.90      -99.90      -99.90      -99.90      -99.90      -99.90    
       -99.90      -99.90      -99.90      -99.90      -99.90      -99.90      -99.90      -99.90      -99.90      -99.90    
       -99.90      -99.90      -99.90      -99.90      -99.90      -99.90      -99.90      -99.90      -99.90      -99.90    
       -99.90      -99.90      -99.90      -99.90      -99.90      -99.90      -99.90      -99.90      -99.90      -99.90    
  20   -99.90      -99.90      -99.90      -99.90      -99.90      -99.90      -99.90      -99.90      -99.90      -99.90    
       -99.90      -99.90      -99.90      -99.90      -99.90      -99.90      -99.90      -99.90      -99.90      -99.90    
       -99.90      -99.90      -99.90      -99.90      -99.90      -99.90      -99.90      -99.90      -99.90      -99.90    
       -99.90      -99.90      -99.90      -99.90      -99.90      -99.90      -99.90      -99.90      -99.90      -99.90    
  21   -99.90      -99.90      -99.90      -99.90      -99.90      -99.90      -99.90      -99.90      -99.90      -99.90    
       -99.90      -99.90      -99.90      -99.90      -99.90      -99.90      -99.90      -99.90      -99.90      -99.90    
       -99.90      -99.90      -99.90      -99.90      -99.90      -99.90      -99.90      -99.90      -99.90      -99.90    
       -99.90      -99.90      -99.90      -99.90      -99.90      -99.90      -99.90      -99.90      -99.90      -99.90    
  22   -99.90      -99.90      -99.90      -99.90      -99.90      -99.90      -99.90      -99.90      -99.90      -99.90    
       -99.90      -99.90      -99.90      -99.90      -99.90      -99.90      -99.90      -99.90      -99.90      -99.90    
       -99.90      -99.90      -99.90      -99.90      -99.90      -99.90      -99.90      -99.90      -99.90      -99.90    
       -99.90      -99.90      -99.90      -99.90      -99.90      -99.90      -99.90      -99.90      -99.90      -99.90    
  23   -99.90      -99.90      -99.90      -99.90      -99.90      -99.90      -99.90      -99.90      -99.90      -99.90    
       -99.90      -99.90      -99.90      -99.90      -99.90      -99.90      -99.90      -99.90      -99.90      -99.90    
       -99.90      -99.90      -99.90      -99.90      -99.90      -99.90      -99.90      -99.90      -99.90      -99.90    
       -99.90      -99.90      -99.90      -99.90      -99.90      -99.90      -99.90      -99.90      -99.90      -99.90    
  24   -99.90      -99.90      -99.90      -99.90      -99.90      -99.90      -99.90      -99.90      -99.90      -99.90    
       -99.90      -99.90      -99.90      -99.90      -99.90      -99.90      -99.90      -99.90      -99.90      -99.90    
       -99.90      -99.90      -99.90      -99.90      -99.90      -99.90      -99.90      -99.90      -99.90      -99.90    
       -99.90      -99.90      -99.90      -99.90      -99.90      -99.90      -99.90      -99.90      -99.90      -99.90    
  25   -99.90      -99.90      -99.90      -99.90      -99.90      -99.90      -99.90      -99.90      -99.90      -99.90    
       -99.90      -99.90      -99.90      -99.90      -99.90      -99.90      -99.90      -99.90      -99.90      -99.90    
       -99.90      -99.90      -99.90      -99.90      -99.90      -99.90      -99.90      -99.90      -99.90      -99.90    
       -99.90      -99.90      -99.90      -99.90      -99.90      -99.90      -99.90      -99.90      -99.90      -99.90    
  26   -99.90      -99.90      -99.90      -99.90      -99.90      -99.90      -99.90      -99.90      -99.90      -99.90    
       -99.90      -99.90      -99.90      -99.90      -99.90      -99.90      -99.90      -99.90      -99.90      -99.90    
       -99.90      -99.90      -99.90      -99.90      -99.90      -99.90      -99.90      -99.90      -99.90      -99.90    
       -99.90      -99.90      -99.90      -99.90      -99.90      -99.90      -99.90      -99.90      -99.90      -99.90    
  27   -99.90      -99.90      -99.90      -99.90      -99.90      -99.90      -99.90      -99.90      -99.90      -99.90    
       -99.90      -99.90      -99.90      -99.90      -99.90      -99.90      -99.90      -99.90      -99.90      -99.90    
       -99.90      -99.90      -99.90      -99.90      -99.90      -99.90      -99.90      -99.90      -99.90      -99.90    
       -99.90      -99.90      -99.90      -99.90      -99.90      -99.90      -99.90      -99.90      -99.90      -99.90    
  28   -99.90      -99.90      -99.90      -99.90      -99.90      -99.90      -99.90      -99.90      -99.90      -99.90    
       -99.90      -99.90      -99.90      -99.90      -99.90      -99.90      -99.90      -99.90      -99.90      -99.90    
       -99.90      -99.90      -99.90      -99.90      -99.90      -99.90      -99.90      -99.90      -99.90      -99.90    
       -99.90      -99.90      -99.90      -99.90      -99.90      -99.90      -99.90      -99.90      -99.90      -99.90    
  29   -99.90      -99.90      -99.90      -99.90      -99.90      -99.90      -99.90      -99.90      -99.90      -99.90    
       -99.90      -99.90      -99.90      -99.90      -99.90      -99.90      -99.90      -99.90      -99.90      -99.90    
       -99.90      -99.90      -99.90      -99.90      -99.90      -99.90      -99.90      -99.90      -99.90      -99.90    
       -99.90      -99.90      -99.90      -99.90      -99.90      -99.90      -99.90      -99.90      -99.90      -99.90    
  30   -99.90      -99.90      -99.90      -99.90      -99.90      -99.90      -99.90      -99.90      -99.90      -99.90    
       -99.90      -99.90      -99.90      -99.90      -99.90      -99.90      -99.90      -99.90      -99.90      -99.90    
       -99.90      -99.90      -99.90      -99.90      -99.90      -99.90      -99.90      -99.90      -99.90      -99.90    
       -99.90      -99.90      -99.90      -99.90      -99.90      -99.90      -99.90      -99.90      -99.90      -99.90    
  31   -99.90      -99.90      -99.90      -99.90      -99.90      -99.90      -99.90      -99.90      -99.90      -99.90    
       -99.90      -99.90      -99.90      -99.90      -99.90      -99.90      -99.90      -99.90      -99.90      -99.90    
       -99.90      -99.90      -99.90      -99.90      -99.90      -99.90      -99.90      -99.90      -99.90      -99.90    
       -99.90      -99.90      -99.90      -99.90      -99.90      -99.90      -99.90      -99.90      -99.90      -99.90    
  32   -99.90      -99.90      -99.90      -99.90      -99.90      -99.90      -99.90      -99.90      -99.90      -99.90    
       -99.90      -99.90      -99.90      -99.90      -99.90      -99.90      -99.90      -99.90      -99.90      -99.90    
       -99.90      -99.90      -99.90      -99.90      -99.90      -99.90      -99.90      -99.90      -99.90      -99.90    
       -99.90      -99.90      -99.90      -99.90      -99.90      -99.90      -99.90      -99.90      -99.90      -99.90    
  33   -99.90      -99.90      -99.90      -99.90      -99.90      -99.90      -99.90      -99.90      -99.90      -99.90    
       -99.90      -99.90      -99.90      -99.90      -99.90      -99.90      -99.90      -99.90      -99.90      -99.90    
       -99.90      -99.90      -99.90      -99.90      -99.90      -99.90      -99.90      -99.90      -99.90      -99.90    
       -99.90      -99.90      -99.90      -99.90      -99.90      -99.90      -99.90      -99.90      -99.90      -99.90    
  34   -99.90      -99.90      -99.90      -99.90      -99.90      -99.90      -99.90      -99.90      -99.90      -99.90    
       -99.90      -99.90      -99.90      -99.90      -99.90      -99.90      -99.90      -99.90      -99.90      -99.90    
       -99.90      -99.90      -99.90      -99.90      -99.90      -99.90      -99.90      -99.90      -99.90      -99.90    
       -99.90      -99.90      -99.90      -99.90      -99.90      -99.90      -99.90      -99.90      -99.90      -99.90    
  35   -99.90      -99.90      -99.90      -99.90      -99.90      -99.90      -99.90      -99.90      -99.90      -99.90    
       -99.90      -99.90      -99.90      -99.90      -99.90      -99.90      -99.90      -99.90      -99.90      -99.90    
       -99.90      -99.90      -99.90      -99.90      -99.90      -99.90      -99.90      -99.90      -99.90      -99.90    
       -99.90      -99.90      -99.90      -99.90      -99.90      -99.90      -99.90      -99.90      -99.90      -99.90    
  36   -99.90      -99.90      -99.90      -99.90      -99.90      -99.90      -99.90      -99.90      -99.90      -99.90    
       -99.90      -99.90      -99.90      -99.90      -99.90      -99.90      -99.90      -99.90      -99.90      -99.90    
       -99.90      -99.90      -99.90      -99.90      -99.90      -99.90      -99.90      -99.90      -99.90      -99.90    
       -99.90      -99.90      -99.90      -99.90      -99.90      -99.90      -99.90      -99.90      -99.90      -99.90    
  37   -99.90      -99.90      -99.90      -99.90      -99.90      -99.90      -99.90      -99.90      -99.90      -99.90    
       -99.90      -99.90      -99.90      -99.90      -99.90      -99.90      -99.90      -99.90      -99.90      -99.90    
       -99.90      -99.90      -99.90      -99.90      -99.90      -99.90      -99.90      -99.90      -99.90      -99.90    
       -99.90      -99.90      -99.90      -99.90      -99.90      -99.90      -99.90      -99.90      -99.90      -99.90    
  38   -99.90      -99.90      -99.90      -99.90      -99.90      -99.90      -99.90      -99.90      -99.90      -99.90    
       -99.90      -99.90      -99.90      -99.90      -99.90      -99.90      -99.90      -99.90      -99.90      -99.90    
       -99.90      -99.90      -99.90      -99.90      -99.90      -99.90      -99.90      -99.90      -99.90      -99.90    
       -99.90      -99.90      -99.90      -99.90      -99.90      -99.90      -99.90      -99.90      -99.90      -99.90    
  39   -99.90      -99.90      -99.90      -99.90      -99.90      -99.90      -99.90      -99.90      -99.90      -99.90    
       -99.90      -99.90      -99.90      -99.90      -99.90      -99.90      -99.90      -99.90      -99.90      -99.90    
       -99.90      -99.90      -99.90      -99.90      -99.90      -99.90      -99.90      -99.90      -99.90      -99.90    
       -99.90      -99.90      -99.90      -99.90      -99.90      -99.90      -99.90      -99.90      -99.90      -99.90    
  40   -99.90      -99.90      -99.90      -99.90      -99.90      -99.90      -99.90      -99.90      -99.90      -99.90    
       -99.90      -99.90      -99.90      -99.90      -99.90      -99.90      -99.90      -99.90      -99.90      -99.90    
       -99.90      -99.90      -99.90      -99.90      -99.90      -99.90      -99.90      -99.90      -99.90      -99.90    
       -99.90      -99.90      -99.90      -99.90      -99.90      -99.90      -99.90      -99.90      -99.90      -99.90    
1
              HEAD IN LAYER   3 AT END OF TIME STEP   1 IN STRESS PERIOD    3
  ---------------------------------------------------------------------------

            1           2           3           4           5           6           7           8           9          10
           11          12          13          14          15          16          17          18          19          20
           21          22          23          24          25          26          27          28          29          30
           31          32          33          34          35          36          37          38          39          40
 ........................................................................................................................
   1   -99.90      -99.90      -99.90      -99.90      -99.90      -99.90      -99.90      -99.90      -99.90      -99.90    
       -99.90      -99.90      -99.90      -99.90      -99.90      -99.90      -99.90      -99.90      -99.90      -99.90    
       -99.90      -99.90      -99.90      -99.90      -99.90      -99.90      -99.90      -99.90      -99.90      -99.90    
       -99.90      -99.90      -99.90      -99.90      -99.90      -99.90      -99.90      -99.90      -99.90      -99.90    
   2   -99.90      -99.90      -99.90      -99.90      -99.90      -99.90      -99.90      -99.90      -99.90      -99.90    
       -99.90      -99.90      -99.90      -99.90      -99.90      -99.90      -99.90      -99.90      -99.90      -99.90    
       -99.90      -99.90      -99.90      -99.90      -99.90      -99.90      -99.90      -99.90      -99.90      -99.90    
       -99.90      -99.90      -99.90      -99.90      -99.90      -99.90      -99.90      -99.90      -99.90      -99.90    
   3   -99.90      -99.90      -99.90      -99.90      -99.90      -99.90      -99.90      -99.90      -99.90      -99.90    
       -99.90      -99.90      -99.90      -99.90      -99.90      -99.90      -99.90      -99.90      -99.90      -99.90    
       -99.90      -99.90      -99.90      -99.90      -99.90      -99.90      -99.90      -99.90      -99.90      -99.90    
       -99.90      -99.90      -99.90      -99.90      -99.90      -99.90      -99.90      -99.90      -99.90      -99.90    
   4   -99.90      -99.90      -99.90      -99.90      -99.90      -99.90      -99.90      -99.90      -99.90      -99.90    
       -99.90      -99.90      -99.90      -99.90      -99.90      -99.90      -99.90      -99.90      -99.90      -99.90    
       -99.90      -99.90      -99.90      -99.90      -99.90      -99.90      -99.90      -99.90      -99.90      -99.90    
       -99.90      -99.90      -99.90      -99.90      -99.90      -99.90      -99.90      -99.90      -99.90      -99.90    
   5   -99.90      -99.90      -99.90      -99.90      -99.90      -99.90      -99.90      -99.90      -99.90      -99.90    
       -99.90      -99.90      -99.90      -99.90      -99.90      -99.90      -99.90      -99.90      -99.90      -99.90    
       -99.90      -99.90      -99.90      -99.90      -99.90      -99.90      -99.90      -99.90      -99.90      -99.90    
       -99.90      -99.90      -99.90      -99.90      -99.90      -99.90      -99.90      -99.90      -99.90      -99.90    
   6   -99.90      -99.90      -99.90      -99.90      -99.90      -99.90      -99.90      -99.90      -99.90      -99.90    
       -99.90      -99.90      -99.90      -99.90      -99.90      -99.90      -99.90      -99.90      -99.90      -99.90    
       -99.90      -99.90      -99.90      -99.90      -99.90      -99.90      -99.90      -99.90      -99.90      -99.90    
       -99.90      -99.90      -99.90      -99.90      -99.90      -99.90      -99.90      -99.90      -99.90      -99.90    
   7   -99.90      -99.90      -99.90      -99.90      -99.90      -99.90      -99.90      -99.90      -99.90      -99.90    
       -99.90      -99.90      -99.90      -99.90      -99.90      -99.90      -99.90      -99.90      -99.90      -99.90    
       -99.90      -99.90      -99.90      -99.90      -99.90      -99.90      -99.90      -99.90      -99.90      -99.90    
       -99.90      -99.90      -99.90      -99.90      -99.90      -99.90      -99.90      -99.90      -99.90      -99.90    
   8   -99.90      -99.90      -99.90      -99.90      -99.90      -99.90      -99.90      -99.90      -99.90      -99.90    
       -99.90      -99.90      -99.90      -99.90      -99.90      -99.90      -99.90      -99.90      -99.90      -99.90    
       -99.90      -99.90      -99.90      -99.90      -99.90      -99.90      -99.90      -99.90      -99.90      -99.90    
       -99.90      -99.90      -99.90      -99.90      -99.90      -99.90      -99.90      -99.90      -99.90      -99.90    
   9   -99.90      -99.90      -99.90      -99.90      -99.90      -99.90      -99.90      -99.90      -99.90      -99.90    
       -99.90      -99.90      -99.90      -99.90      -99.90      -99.90      -99.90      -99.90      -99.90      -99.90    
       -99.90      -99.90      -99.90      -99.90      -99.90      -99.90      -99.90      -99.90      -99.90      -99.90    
       -99.90      -99.90      -99.90      -99.90      -99.90      -99.90      -99.90      -99.90      -99.90      -99.90    
  10   -99.90      -99.90      -99.90      -99.90      -99.90      -99.90      -99.90      -99.90      -99.90      -99.90    
       -99.90      -99.90      -99.90      -99.90      -99.90      -99.90      -99.90      -99.90      -99.90      -99.90    
       -99.90      -99.90      -99.90      -99.90      -99.90      -99.90      -99.90      -99.90      -99.90      -99.90    
       -99.90      -99.90      -99.90      -99.90      -99.90      -99.90      -99.90      -99.90      -99.90      -99.90    
  11   -99.90      -99.90      -99.90      -99.90      -99.90      -99.90      -99.90      -99.90      -99.90      -99.90    
       -99.90      -99.90      -99.90      -99.90      -99.90      -99.90      -99.90      -99.90      -99.90      -99.90    
       -99.90      -99.90      -99.90      -99.90      -99.90      -99.90      -99.90      -99.90      -99.90      -99.90    
       -99.90      -99.90      -99.90      -99.90      -99.90      -99.90      -99.90      -99.90      -99.90      -99.90    
  12   -99.90      -99.90      -99.90      -99.90      -99.90      -99.90      -99.90      -99.90      -99.90      -99.90    
       -99.90      -99.90      -99.90      -99.90      -99.90      -99.90      -99.90      -99.90      -99.90      -99.90    
       -99.90      -99.90      -99.90      -99.90      -99.90      -99.90      -99.90      -99.90      -99.90      -99.90    
       -99.90      -99.90      -99.90      -99.90      -99.90      -99.90      -99.90      -99.90      -99.90      -99.90    
  13   -99.90      -99.90      -99.90      -99.90      -99.90      -99.90      -99.90      -99.90      -99.90      -99.90    
       -99.90      -99.90      -99.90      -99.90      -99.90      -99.90      -99.90      -99.90      -99.90      -99.90    
       -99.90      -99.90      -99.90      -99.90      -99.90      -99.90      -99.90      -99.90      -99.90      -99.90    
       -99.90      -99.90      -99.90      -99.90      -99.90      -99.90      -99.90      -99.90      -99.90      -99.90    
  14   -99.90      -99.90      -99.90      -99.90      -99.90      -99.90      -99.90      -99.90      -99.90      -99.90    
       -99.90      -99.90      -99.90      -99.90      -99.90      -99.90      -99.90      -99.90      -99.90      -99.90    
       -99.90      -99.90      -99.90      -99.90      -99.90      -99.90      -99.90      -99.90      -99.90      -99.90    
       -99.90      -99.90      -99.90      -99.90      -99.90      -99.90      -99.90      -99.90      -99.90      -99.90    
  15   -99.90      -99.90      -99.90      -99.90      -99.90      -99.90      -99.90      -99.90      -99.90      -99.90    
       -99.90      -99.90      -99.90      -99.90      -99.90      -99.90      -99.90      -99.90      -99.90      -99.90    
       -99.90      -99.90      -99.90      -99.90      -99.90      -99.90      -99.90      -99.90      -99.90      -99.90    
       -99.90      -99.90      -99.90      -99.90      -99.90      -99.90      -99.90      -99.90      -99.90      -99.90    
  16   -99.90      -99.90      -99.90      -99.90      -99.90      -99.90      -99.90      -99.90      -99.90      -99.90    
       -99.90      -99.90      -99.90      -99.90      -99.90      -99.90      -99.90      -99.90      -99.90      -99.90    
       -99.90      -99.90      -99.90      -99.90      -99.90      -99.90      -99.90      -99.90      -99.90      -99.90    
       -99.90      -99.90      -99.90      -99.90      -99.90      -99.90      -99.90      -99.90      -99.90      -99.90    
  17   -99.90      -99.90      -99.90      -99.90      -99.90      -99.90      -99.90      -99.90      -99.90      -99.90    
       -99.90      -99.90      -99.90      -99.90      -99.90      -99.90      -99.90      -99.90      -99.90      -99.90    
       -99.90      -99.90      -99.90      -99.90      -99.90      -99.90      -99.90      -99.90      -99.90      -99.90    
       -99.90      -99.90      -99.90      -99.90      -99.90      -99.90      -99.90      -99.90      -99.90      -99.90    
  18   -99.90      -99.90      -99.90      -99.90      -99.90      -99.90      -99.90      -99.90      -99.90      -99.90    
       -99.90      -99.90      -99.90      -99.90      -99.90      -99.90      -99.90      -99.90      -99.90      -99.90    
       -99.90      -99.90      -99.90      -99.90      -99.90      -99.90      -99.90      -99.90      -99.90      -99.90    
       -99.90      -99.90      -99.90      -99.90      -99.90      -99.90      -99.90      -99.90      -99.90      -99.90    
  19   -99.90      -99.90      -99.90      -99.90      -99.90      -99.90      -99.90      -99.90      -99.90      -99.90    
       -99.90      -99.90      -99.90      -99.90      -99.90      -99.90      -99.90      -99.90      -99.90      -99.90    
       -99.90      -99.90      -99.90      -99.90      -99.90      -99.90      -99.90      -99.90      -99.90      -99.90    
       -99.90      -99.90      -99.90      -99.90      -99.90      -99.90      -99.90      -99.90      -99.90      -99.90    
  20   -99.90      -99.90      -99.90      -99.90      -99.90      -99.90      -99.90      -99.90      -99.90      -99.90    
       -99.90      -99.90      -99.90      -99.90      -99.90      -99.90      -99.90      -99.90      -99.90      -99.90    
       -99.90      -99.90      -99.90      -99.90      -99.90      -99.90      -99.90      -99.90      -99.90      -99.90    
       -99.90      -99.90      -99.90      -99.90      -99.90      -99.90      -99.90      -99.90      -99.90      -99.90    
  21   -99.90      -99.90      -99.90      -99.90      -99.90      -99.90      -99.90      -99.90      -99.90      -99.90    
       -99.90      -99.90      -99.90      -99.90      -99.90      -99.90      -99.90      -99.90      -99.90      -99.90    
       -99.90      -99.90      -99.90      -99.90      -99.90      -99.90      -99.90      -99.90      -99.90      -99.90    
       -99.90      -99.90      -99.90      -99.90      -99.90      -99.90      -99.90      -99.90      -99.90      -99.90    
  22   -99.90      -99.90      -99.90      -99.90      -99.90      -99.90      -99.90      -99.90      -99.90      -99.90    
       -99.90      -99.90      -99.90      -99.90      -99.90      -99.90      -99.90      -99.90      -99.90      -99.90    
       -99.90      -99.90      -99.90      -99.90      -99.90      -99.90      -99.90      -99.90      -99.90      -99.90    
       -99.90      -99.90      -99.90      -99.90      -99.90      -99.90      -99.90      -99.90      -99.90      -99.90    
  23   -99.90      -99.90      -99.90      -99.90      -99.90      -99.90      -99.90      -99.90      -99.90      -99.90    
       -99.90      -99.90      -99.90      -99.90      -99.90      -99.90      -99.90      -99.90      -99.90      -99.90    
       -99.90      -99.90      -99.90      -99.90      -99.90      -99.90      -99.90      -99.90      -99.90      -99.90    
       -99.90      -99.90      -99.90      -99.90      -99.90      -99.90      -99.90      -99.90      -99.90      -99.90    
  24   -99.90      -99.90      -99.90      -99.90      -99.90      -99.90      -99.90      -99.90      -99.90      -99.90    
       -99.90      -99.90      -99.90      -99.90      -99.90      -99.90      -99.90      -99.90      -99.90      -99.90    
       -99.90      -99.90      -99.90      -99.90      -99.90      -99.90      -99.90      -99.90      -99.90      -99.90    
       -99.90      -99.90      -99.90      -99.90      -99.90      -99.90      -99.90      -99.90      -99.90      -99.90    
  25   -99.90      -99.90      -99.90      -99.90      -99.90      -99.90      -99.90      -99.90      -99.90      -99.90    
       -99.90      -99.90      -99.90      -99.90      -99.90      -99.90      -99.90      -99.90      -99.90      -99.90    
       -99.90      -99.90      -99.90      -99.90      -99.90      -99.90      -99.90      -99.90      -99.90      -99.90    
       -99.90      -99.90      -99.90      -99.90      -99.90      -99.90      -99.90      -99.90      -99.90      -99.90    
  26   -99.90      -99.90      -99.90      -99.90      -99.90      -99.90      -99.90      -99.90      -99.90      -99.90    
       -99.90      -99.90      -99.90      -99.90      -99.90      -99.90      -99.90      -99.90      -99.90      -99.90    
       -99.90      -99.90      -99.90      -99.90      -99.90      -99.90      -99.90      -99.90      -99.90      -99.90    
       -99.90      -99.90      -99.90      -99.90      -99.90      -99.90      -99.90      -99.90      -99.90      -99.90    
  27   -99.90      -99.90      -99.90      -99.90      -99.90      -99.90      -99.90      -99.90      -99.90      -99.90    
       -99.90      -99.90      -99.90      -99.90      -99.90      -99.90      -99.90      -99.90      -99.90      -99.90    
       -99.90      -99.90      -99.90      -99.90      -99.90      -99.90      -99.90      -99.90      -99.90      -99.90    
       -99.90      -99.90      -99.90      -99.90      -99.90      -99.90      -99.90      -99.90      -99.90      -99.90    
  28   -99.90      -99.90      -99.90      -99.90      -99.90      -99.90      -99.90      -99.90      -99.90      -99.90    
       -99.90      -99.90      -99.90      -99.90      -99.90      -99.90      -99.90      -99.90      -99.90      -99.90    
       -99.90      -99.90      -99.90      -99.90      -99.90      -99.90      -99.90      -99.90      -99.90      -99.90    
       -99.90      -99.90      -99.90      -99.90      -99.90      -99.90      -99.90      -99.90      -99.90      -99.90    
  29   -99.90      -99.90      -99.90      -99.90      -99.90      -99.90      -99.90      -99.90      -99.90      -99.90    
       -99.90      -99.90      -99.90      -99.90      -99.90      -99.90      -99.90      -99.90      -99.90      -99.90    
       -99.90      -99.90      -99.90      -99.90      -99.90      -99.90      -99.90      -99.90      -99.90      -99.90    
       -99.90      -99.90      -99.90      -99.90      -99.90      -99.90      -99.90      -99.90      -99.90      -99.90    
  30   -99.90      -99.90      -99.90      -99.90      -99.90      -99.90      -99.90      -99.90      -99.90      -99.90    
       -99.90      -99.90      -99.90      -99.90      -99.90      -99.90      -99.90      -99.90      -99.90      -99.90    
       -99.90      -99.90      -99.90      -99.90      -99.90      -99.90      -99.90      -99.90      -99.90      -99.90    
       -99.90      -99.90      -99.90      -99.90      -99.90      -99.90      -99.90      -99.90      -99.90      -99.90    
  31   -99.90      -99.90      -99.90      -99.90      -99.90      -99.90      -99.90      -99.90      -99.90      -99.90    
       -99.90      -99.90      -99.90      -99.90      -99.90      -99.90      -99.90      -99.90      -99.90      -99.90    
       -99.90      -99.90      -99.90      -99.90      -99.90      -99.90      -99.90      -99.90      -99.90      -99.90    
       -99.90      -99.90      -99.90      -99.90      -99.90      -99.90      -99.90      -99.90      -99.90      -99.90    
  32   -99.90      -99.90      -99.90      -99.90      -99.90      -99.90      -99.90      -99.90      -99.90      -99.90    
       -99.90      -99.90      -99.90      -99.90      -99.90      -99.90      -99.90      -99.90      -99.90      -99.90    
       -99.90      -99.90      -99.90      -99.90      -99.90      -99.90      -99.90      -99.90      -99.90      -99.90    
       -99.90      -99.90      -99.90      -99.90      -99.90      -99.90      -99.90      -99.90      -99.90      -99.90    
  33   -99.90      -99.90      -99.90      -99.90      -99.90      -99.90      -99.90      -99.90      -99.90      -99.90    
       -99.90      -99.90      -99.90      -99.90      -99.90      -99.90      -99.90      -99.90      -99.90      -99.90    
       -99.90      -99.90      -99.90      -99.90      -99.90      -99.90      -99.90      -99.90      -99.90      -99.90    
       -99.90      -99.90      -99.90      -99.90      -99.90      -99.90      -99.90      -99.90      -99.90      -99.90    
  34   -99.90      -99.90      -99.90      -99.90      -99.90      -99.90      -99.90      -99.90      -99.90      -99.90    
       -99.90      -99.90      -99.90      -99.90      -99.90      -99.90      -99.90      -99.90      -99.90      -99.90    
       -99.90      -99.90      -99.90      -99.90      -99.90      -99.90      -99.90      -99.90      -99.90      -99.90    
       -99.90      -99.90      -99.90      -99.90      -99.90      -99.90      -99.90      -99.90      -99.90      -99.90    
  35   -99.90      -99.90      -99.90      -99.90      -99.90      -99.90      -99.90      -99.90      -99.90      -99.90    
       -99.90      -99.90      -99.90      -99.90      -99.90      -99.90      -99.90      -99.90      -99.90      -99.90    
       -99.90      -99.90      -99.90      -99.90      -99.90      -99.90      -99.90      -99.90      -99.90      -99.90    
       -99.90      -99.90      -99.90      -99.90      -99.90      -99.90      -99.90      -99.90      -99.90      -99.90    
  36   -99.90      -99.90      -99.90      -99.90      -99.90      -99.90      -99.90      -99.90      -99.90      -99.90    
       -99.90      -99.90      -99.90      -99.90      -99.90      -99.90      -99.90      -99.90      -99.90      -99.90    
       -99.90      -99.90      -99.90      -99.90      -99.90      -99.90      -99.90      -99.90      -99.90      -99.90    
       -99.90      -99.90      -99.90      -99.90      -99.90      -99.90      -99.90      -99.90      -99.90      -99.90    
  37   -99.90      -99.90      -99.90      -99.90      -99.90      -99.90      -99.90      -99.90      -99.90      -99.90    
       -99.90      -99.90      -99.90      -99.90      -99.90      -99.90      -99.90      -99.90      -99.90      -99.90    
       -99.90      -99.90      -99.90      -99.90      -99.90      -99.90      -99.90      -99.90      -99.90      -99.90    
       -99.90      -99.90      -99.90      -99.90      -99.90      -99.90      -99.90      -99.90      -99.90      -99.90    
  38   -99.90      -99.90      -99.90      -99.90      -99.90      -99.90      -99.90      -99.90      -99.90      -99.90    
       -99.90      -99.90      -99.90      -99.90      -99.90      -99.90      -99.90      -99.90      -99.90      -99.90    
       -99.90      -99.90      -99.90      -99.90      -99.90      -99.90      -99.90      -99.90      -99.90      -99.90    
       -99.90      -99.90      -99.90      -99.90      -99.90      -99.90      -99.90      -99.90      -99.90      -99.90    
  39   -99.90      -99.90      -99.90      -99.90      -99.90      -99.90      -99.90      -99.90      -99.90      -99.90    
       -99.90      -99.90      -99.90      -99.90      -99.90      -99.90      -99.90      -99.90      -99.90      -99.90    
       -99.90      -99.90      -99.90      -99.90      -99.90      -99.90      -99.90      -99.90      -99.90      -99.90    
       -99.90      -99.90      -99.90      -99.90      -99.90      -99.90      -99.90      -99.90      -99.90      -99.90    
  40   -99.90      -99.90      -99.90      -99.90      -99.90      -99.90      -99.90      -99.90      -99.90      -99.90    
       -99.90      -99.90      -99.90      -99.90      -99.90      -99.90      -99.90      -99.90      -99.90      -99.90    
       -99.90      -99.90      -99.90      -99.90      -99.90      -99.90      -99.90      -99.90      -99.90      -99.90    
       -99.90      -99.90      -99.90      -99.90      -99.90      -99.90      -99.90      -99.90      -99.90      -99.90    
1
              HEAD IN LAYER   4 AT END OF TIME STEP   1 IN STRESS PERIOD    3
  ---------------------------------------------------------------------------

            1           2           3           4           5           6           7           8           9          10
           11          12          13          14          15          16          17          18          19          20
           21          22          23          24          25          26          27          28          29          30
           31          32          33          34          35          36          37          38          39          40
 ........................................................................................................................
   1   -99.90      -99.90      -99.90      -99.90      -99.90      -99.90      -99.90      -99.90      -99.90      -99.90    
       -99.90      -99.90      -99.90      -99.90      -99.90      -99.90      -99.90      -99.90      -99.90      -99.90    
       -99.90      -99.90      -99.90      -99.90      -99.90      -99.90      -99.90      -99.90      -99.90      -99.90    
       -99.90      -99.90      -99.90      -99.90      -99.90      -99.90      -99.90      -99.90      -99.90      -99.90    
   2   -99.90      -99.90      -99.90      -99.90      -99.90      -99.90      -99.90      -99.90      -99.90      -99.90    
       -99.90      -99.90      -99.90      -99.90      -99.90      -99.90      -99.90      -99.90      -99.90      -99.90    
       -99.90      -99.90      -99.90      -99.90      -99.90      -99.90      -99.90      -99.90      -99.90      -99.90    
       -99.90      -99.90      -99.90      -99.90      -99.90      -99.90      -99.90      -99.90      -99.90      -99.90    
   3   -99.90      -99.90      -99.90      -99.90      -99.90      -99.90      -99.90      -99.90      -99.90      -99.90    
       -99.90      -99.90      -99.90      -99.90      -99.90      -99.90      -99.90      -99.90      -99.90      -99.90    
       -99.90      -99.90      -99.90      -99.90      -99.90      -99.90      -99.90      -99.90      -99.90      -99.90    
       -99.90      -99.90      -99.90      -99.90      -99.90      -99.90      -99.90      -99.90      -99.90      -99.90    
   4   -99.90      -99.90      -99.90      -99.90      -99.90      -99.90      -99.90      -99.90      -99.90      -99.90    
       -99.90      -99.90      -99.90      -99.90      -99.90      -99.90      -99.90      -99.90      -99.90      -99.90    
       -99.90      -99.90      -99.90      -99.90      -99.90      -99.90      -99.90      -99.90      -99.90      -99.90    
       -99.90      -99.90      -99.90      -99.90      -99.90      -99.90      -99.90      -99.90      -99.90      -99.90    
   5   -99.90      -99.90      -99.90      -99.90      -99.90      -99.90      -99.90      -99.90      -99.90      -99.90    
       -99.90      -99.90      -99.90      -99.90      -99.90      -99.90      -99.90      -99.90      -99.90      -99.90    
       -99.90      -99.90      -99.90      -99.90      -99.90      -99.90      -99.90      -99.90      -99.90      -99.90    
       -99.90      -99.90      -99.90      -99.90      -99.90      -99.90      -99.90      -99.90      -99.90      -99.90    
   6   -99.90      -99.90      -99.90      -99.90      -99.90      -99.90      -99.90      -99.90      -99.90      -99.90    
       -99.90      -99.90      -99.90      -99.90      -99.90      -99.90      -99.90      -99.90      -99.90      -99.90    
       -99.90      -99.90      -99.90      -99.90      -99.90      -99.90      -99.90      -99.90      -99.90      -99.90    
       -99.90      -99.90      -99.90      -99.90      -99.90      -99.90      -99.90      -99.90      -99.90      -99.90    
   7   -99.90      -99.90      -99.90      -99.90      -99.90      -99.90      -99.90      -99.90      -99.90      -99.90    
       -99.90      -99.90      -99.90      -99.90      -99.90      -99.90      -99.90      -99.90      -99.90      -99.90    
       -99.90      -99.90      -99.90      -99.90      -99.90      -99.90      -99.90      -99.90      -99.90      -99.90    
       -99.90      -99.90      -99.90      -99.90      -99.90      -99.90      -99.90      -99.90      -99.90      -99.90    
   8   -99.90      -99.90      -99.90      -99.90      -99.90      -99.90      -99.90      -99.90      -99.90      -99.90    
       -99.90      -99.90      -99.90      -99.90      -99.90      -99.90      -99.90      -99.90      -99.90      -99.90    
       -99.90      -99.90      -99.90      -99.90      -99.90      -99.90      -99.90      -99.90      -99.90      -99.90    
       -99.90      -99.90      -99.90      -99.90      -99.90      -99.90      -99.90      -99.90      -99.90      -99.90    
   9   -99.90      -99.90      -99.90      -99.90      -99.90      -99.90      -99.90      -99.90      -99.90      -99.90    
       -99.90      -99.90      -99.90      -99.90      -99.90      -99.90      -99.90      -99.90      -99.90      -99.90    
       -99.90      -99.90      -99.90      -99.90      -99.90      -99.90      -99.90      -99.90      -99.90      -99.90    
       -99.90      -99.90      -99.90      -99.90      -99.90      -99.90      -99.90      -99.90      -99.90      -99.90    
  10   -99.90      -99.90      -99.90      -99.90      -99.90      -99.90      -99.90      -99.90      -99.90      -99.90    
       -99.90      -99.90      -99.90      -99.90      -99.90      -99.90      -99.90      -99.90      -99.90      -99.90    
       -99.90      -99.90      -99.90      -99.90      -99.90      -99.90      -99.90      -99.90      -99.90      -99.90    
       -99.90      -99.90      -99.90      -99.90      -99.90      -99.90      -99.90      -99.90      -99.90      -99.90    
  11   -99.90      -99.90      -99.90      -99.90      -99.90      -99.90      -99.90      -99.90      -99.90      -99.90    
       -99.90      -99.90      -99.90      -99.90      -99.90      -99.90      -99.90      -99.90      -99.90      -99.90    
       -99.90      -99.90      -99.90      -99.90      -99.90      -99.90      -99.90      -99.90      -99.90      -99.90    
       -99.90      -99.90      -99.90      -99.90      -99.90      -99.90      -99.90      -99.90      -99.90      -99.90    
  12   -99.90      -99.90      -99.90      -99.90      -99.90      -99.90      -99.90      -99.90      -99.90      -99.90    
       -99.90      -99.90      -99.90      -99.90      -99.90      -99.90      -99.90      -99.90      -99.90      -99.90    
       -99.90      -99.90      -99.90      -99.90      -99.90      -99.90      -99.90      -99.90      -99.90      -99.90    
       -99.90      -99.90      -99.90      -99.90      -99.90      -99.90      -99.90      -99.90      -99.90      -99.90    
  13   -99.90      -99.90      -99.90      -99.90      -99.90      -99.90      -99.90      -99.90      -99.90      -99.90    
       -99.90      -99.90      -99.90      -99.90      -99.90      -99.90      -99.90      -99.90      -99.90      -99.90    
       -99.90      -99.90      -99.90      -99.90      -99.90      -99.90      -99.90      -99.90      -99.90      -99.90    
       -99.90      -99.90      -99.90      -99.90      -99.90      -99.90      -99.90      -99.90      -99.90      -99.90    
  14   -99.90      -99.90      -99.90      -99.90      -99.90      -99.90      -99.90      -99.90      -99.90      -99.90    
       -99.90      -99.90      -99.90      -99.90      -99.90      -99.90      -99.90      -99.90      -99.90      -99.90    
       -99.90      -99.90      -99.90      -99.90      -99.90      -99.90      -99.90      -99.90      -99.90      -99.90    
       -99.90      -99.90      -99.90      -99.90      -99.90      -99.90      -99.90      -99.90      -99.90      -99.90    
  15   -99.90      -99.90      -99.90      -99.90      -99.90      -99.90      -99.90      -99.90      -99.90      -99.90    
       -99.90      -99.90      -99.90      -99.90      -99.90      -99.90      -99.90      -99.90      -99.90      -99.90    
       -99.90      -99.90      -99.90      -99.90      -99.90      -99.90      -99.90      -99.90      -99.90      -99.90    
       -99.90      -99.90      -99.90      -99.90      -99.90      -99.90      -99.90      -99.90      -99.90      -99.90    
  16   -99.90      -99.90      -99.90      -99.90      -99.90      -99.90      -99.90      -99.90      -99.90      -99.90    
       -99.90      -99.90      -99.90      -99.90      -99.90      -99.90      -99.90      -99.90      -99.90      -99.90    
       -99.90      -99.90      -99.90      -99.90      -99.90      -99.90      -99.90      -99.90      -99.90      -99.90    
       -99.90      -99.90      -99.90      -99.90      -99.90      -99.90      -99.90      -99.90      -99.90      -99.90    
  17   -99.90      -99.90      -99.90      -99.90      -99.90      -99.90      -99.90      -99.90      -99.90      -99.90    
       -99.90      -99.90      -99.90      -99.90      -99.90      -99.90      -99.90      -99.90      -99.90      -99.90    
       -99.90      -99.90      -99.90      -99.90      -99.90      -99.90      -99.90      -99.90      -99.90      -99.90    
       -99.90      -99.90      -99.90      -99.90      -99.90      -99.90      -99.90      -99.90      -99.90      -99.90    
  18   -99.90      -99.90      -99.90      -99.90      -99.90      -99.90      -99.90      -99.90      -99.90      -99.90    
       -99.90      -99.90      -99.90      -99.90      -99.90      -99.90      -99.90      -99.90      -99.90      -99.90    
       -99.90      -99.90      -99.90      -99.90      -99.90      -99.90      -99.90      -99.90      -99.90      -99.90    
       -99.90      -99.90      -99.90      -99.90      -99.90      -99.90      -99.90      -99.90      -99.90      -99.90    
  19   -99.90      -99.90      -99.90      -99.90      -99.90      -99.90      -99.90      -99.90      -99.90      -99.90    
       -99.90      -99.90      -99.90      -99.90      -99.90      -99.90      -99.90      -99.90      -99.90      -99.90    
       -99.90      -99.90      -99.90      -99.90      -99.90      -99.90      -99.90      -99.90      -99.90      -99.90    
       -99.90      -99.90      -99.90      -99.90      -99.90      -99.90      -99.90      -99.90      -99.90      -99.90    
  20   -99.90      -99.90      -99.90      -99.90      -99.90      -99.90      -99.90      -99.90      -99.90      -99.90    
       -99.90      -99.90      -99.90      -99.90      -99.90      -99.90      -99.90      -99.90      -99.90      -99.90    
       -99.90      -99.90      -99.90      -99.90      -99.90      -99.90      -99.90      -99.90      -99.90      -99.90    
       -99.90      -99.90      -99.90      -99.90      -99.90      -99.90      -99.90      -99.90      -99.90      -99.90    
  21   -99.90      -99.90      -99.90      -99.90      -99.90      -99.90      -99.90      -99.90      -99.90      -99.90    
       -99.90      -99.90      -99.90      -99.90      -99.90      -99.90      -99.90      -99.90      -99.90      -99.90    
       -99.90      -99.90      -99.90      -99.90      -99.90      -99.90      -99.90      -99.90      -99.90      -99.90    
       -99.90      -99.90      -99.90      -99.90      -99.90      -99.90      -99.90      -99.90      -99.90      -99.90    
  22   -99.90      -99.90      -99.90      -99.90      -99.90      -99.90      -99.90      -99.90      -99.90      -99.90    
       -99.90      -99.90      -99.90      -99.90      -99.90      -99.90      -99.90      -99.90      -99.90      -99.90    
       -99.90      -99.90      -99.90      -99.90      -99.90      -99.90      -99.90      -99.90      -99.90      -99.90    
       -99.90      -99.90      -99.90      -99.90      -99.90      -99.90      -99.90      -99.90      -99.90      -99.90    
  23   -99.90      -99.90      -99.90      -99.90      -99.90      -99.90      -99.90      -99.90      -99.90      -99.90    
       -99.90      -99.90      -99.90      -99.90      -99.90      -99.90      -99.90      -99.90      -99.90      -99.90    
       -99.90      -99.90      -99.90      -99.90      -99.90      -99.90      -99.90      -99.90      -99.90      -99.90    
       -99.90      -99.90      -99.90      -99.90      -99.90      -99.90      -99.90      -99.90      -99.90      -99.90    
  24   -99.90      -99.90      -99.90      -99.90      -99.90      -99.90      -99.90      -99.90      -99.90      -99.90    
       -99.90      -99.90      -99.90      -99.90      -99.90      -99.90      -99.90      -99.90      -99.90      -99.90    
       -99.90      -99.90      -99.90      -99.90      -99.90      -99.90      -99.90      -99.90      -99.90      -99.90    
       -99.90      -99.90      -99.90      -99.90      -99.90      -99.90      -99.90      -99.90      -99.90      -99.90    
  25   -99.90      -99.90      -99.90      -99.90      -99.90      -99.90      -99.90      -99.90      -99.90      -99.90    
       -99.90      -99.90      -99.90      -99.90      -99.90      -99.90      -99.90      -99.90      -99.90      -99.90    
       -99.90      -99.90      -99.90      -99.90      -99.90      -99.90      -99.90      -99.90      -99.90      -99.90    
       -99.90      -99.90      -99.90      -99.90      -99.90      -99.90      -99.90      -99.90      -99.90      -99.90    
  26   -99.90      -99.90      -99.90      -99.90      -99.90      -99.90      -99.90      -99.90      -99.90      -99.90    
       -99.90      -99.90      -99.90      -99.90      -99.90      -99.90      -99.90      -99.90      -99.90      -99.90    
       -99.90      -99.90      -99.90      -99.90      -99.90      -99.90      -99.90      -99.90      -99.90      -99.90    
       -99.90      -99.90      -99.90      -99.90      -99.90      -99.90      -99.90      -99.90      -99.90      -99.90    
  27   -99.90      -99.90      -99.90      -99.90      -99.90      -99.90      -99.90      -99.90      -99.90      -99.90    
       -99.90      -99.90      -99.90      -99.90      -99.90      -99.90      -99.90      -99.90      -99.90      -99.90    
       -99.90      -99.90      -99.90      -99.90      -99.90      -99.90      -99.90      -99.90      -99.90      -99.90    
       -99.90      -99.90      -99.90      -99.90      -99.90      -99.90      -99.90      -99.90      -99.90      -99.90    
  28   -99.90      -99.90      -99.90      -99.90      -99.90      -99.90      -99.90      -99.90      -99.90      -99.90    
       -99.90      -99.90      -99.90      -99.90      -99.90      -99.90      -99.90      -99.90      -99.90      -99.90    
       -99.90      -99.90      -99.90      -99.90      -99.90      -99.90      -99.90      -99.90      -99.90      -99.90    
       -99.90      -99.90      -99.90      -99.90      -99.90      -99.90      -99.90      -99.90      -99.90      -99.90    
  29   -99.90      -99.90      -99.90      -99.90      -99.90      -99.90      -99.90      -99.90      -99.90      -99.90    
       -99.90      -99.90      -99.90      -99.90      -99.90      -99.90      -99.90      -99.90      -99.90      -99.90    
       -99.90      -99.90      -99.90      -99.90      -99.90      -99.90      -99.90      -99.90      -99.90      -99.90    
       -99.90      -99.90      -99.90      -99.90      -99.90      -99.90      -99.90      -99.90      -99.90      -99.90    
  30   -99.90      -99.90      -99.90      -99.90      -99.90      -99.90      -99.90      -99.90      -99.90      -99.90    
       -99.90      -99.90      -99.90      -99.90      -99.90      -99.90      -99.90      -99.90      -99.90      -99.90    
       -99.90      -99.90      -99.90      -99.90      -99.90      -99.90      -99.90      -99.90      -99.90      -99.90    
       -99.90      -99.90      -99.90      -99.90      -99.90      -99.90      -99.90      -99.90      -99.90      -99.90    
  31   -99.90      -99.90      -99.90      -99.90      -99.90      -99.90      -99.90      -99.90      -99.90      -99.90    
       -99.90      -99.90      -99.90      -99.90      -99.90      -99.90      -99.90      -99.90      -99.90      -99.90    
       -99.90      -99.90      -99.90      -99.90      -99.90      -99.90      -99.90      -99.90      -99.90      -99.90    
       -99.90      -99.90      -99.90      -99.90      -99.90      -99.90      -99.90      -99.90      -99.90      -99.90    
  32   -99.90      -99.90      -99.90      -99.90      -99.90      -99.90      -99.90      -99.90      -99.90      -99.90    
       -99.90      -99.90      -99.90      -99.90      -99.90      -99.90      -99.90      -99.90      -99.90      -99.90    
       -99.90      -99.90      -99.90      -99.90      -99.90      -99.90      -99.90      -99.90      -99.90      -99.90    
       -99.90      -99.90      -99.90      -99.90      -99.90      -99.90      -99.90      -99.90      -99.90      -99.90    
  33   -99.90      -99.90      -99.90      -99.90      -99.90      -99.90      -99.90      -99.90      -99.90      -99.90    
       -99.90      -99.90      -99.90      -99.90      -99.90      -99.90      -99.90      -99.90      -99.90      -99.90    
       -99.90      -99.90      -99.90      -99.90      -99.90      -99.90      -99.90      -99.90      -99.90      -99.90    
       -99.90      -99.90      -99.90      -99.90      -99.90      -99.90      -99.90      -99.90      -99.90      -99.90    
  34   -99.90      -99.90      -99.90      -99.90      -99.90      -99.90      -99.90      -99.90      -99.90      -99.90    
       -99.90      -99.90      -99.90      -99.90      -99.90      -99.90      -99.90      -99.90      -99.90      -99.90    
       -99.90      -99.90      -99.90      -99.90      -99.90      -99.90      -99.90      -99.90      -99.90      -99.90    
       -99.90      -99.90      -99.90      -99.90      -99.90      -99.90      -99.90      -99.90      -99.90      -99.90    
  35   -99.90      -99.90      -99.90      -99.90      -99.90      -99.90      -99.90      -99.90      -99.90      -99.90    
       -99.90      -99.90      -99.90      -99.90      -99.90      -99.90      -99.90      -99.90      -99.90      -99.90    
       -99.90      -99.90      -99.90      -99.90      -99.90      -99.90      -99.90      -99.90      -99.90      -99.90    
       -99.90      -99.90      -99.90      -99.90      -99.90      -99.90      -99.90      -99.90      -99.90      -99.90    
  36   -99.90      -99.90      -99.90      -99.90      -99.90      -99.90      -99.90      -99.90      -99.90      -99.90    
       -99.90      -99.90      -99.90      -99.90      -99.90      -99.90      -99.90      -99.90      -99.90      -99.90    
       -99.90      -99.90      -99.90      -99.90      -99.90      -99.90      -99.90      -99.90      -99.90      -99.90    
       -99.90      -99.90      -99.90      -99.90      -99.90      -99.90      -99.90      -99.90      -99.90      -99.90    
  37   -99.90      -99.90      -99.90      -99.90      -99.90      -99.90      -99.90      -99.90      -99.90      -99.90    
       -99.90      -99.90      -99.90      -99.90      -99.90      -99.90      -99.90      -99.90      -99.90      -99.90    
       -99.90      -99.90      -99.90      -99.90      -99.90      -99.90      -99.90      -99.90      -99.90      -99.90    
       -99.90      -99.90      -99.90      -99.90      -99.90      -99.90      -99.90      -99.90      -99.90      -99.90    
  38   -99.90      -99.90      -99.90      -99.90      -99.90      -99.90      -99.90      -99.90      -99.90      -99.90    
       -99.90      -99.90      -99.90      -99.90      -99.90      -99.90      -99.90      -99.90      -99.90      -99.90    
       -99.90      -99.90      -99.90      -99.90      -99.90      -99.90      -99.90      -99.90      -99.90      -99.90    
       -99.90      -99.90      -99.90      -99.90      -99.90      -99.90      -99.90      -99.90      -99.90      -99.90    
  39   -99.90      -99.90      -99.90      -99.90      -99.90      -99.90      -99.90      -99.90      -99.90      -99.90    
       -99.90      -99.90      -99.90      -99.90      -99.90      -99.90      -99.90      -99.90      -99.90      -99.90    
       -99.90      -99.90      -99.90      -99.90      -99.90      -99.90      -99.90      -99.90      -99.90      -99.90    
       -99.90      -99.90      -99.90      -99.90      -99.90      -99.90      -99.90      -99.90      -99.90      -99.90    
  40   -99.90      -99.90      -99.90      -99.90      -99.90      -99.90      -99.90      -99.90      -99.90      -99.90    
       -99.90      -99.90      -99.90      -99.90      -99.90      -99.90      -99.90      -99.90      -99.90      -99.90    
       -99.90      -99.90      -99.90      -99.90      -99.90      -99.90      -99.90      -99.90      -99.90      -99.90    
       -99.90      -99.90      -99.90      -99.90      -99.90      -99.90      -99.90      -99.90      -99.90      -99.90    
1
              HEAD IN LAYER   5 AT END OF TIME STEP   1 IN STRESS PERIOD    3
  ---------------------------------------------------------------------------

            1           2           3           4           5           6           7           8           9          10
           11          12          13          14          15          16          17          18          19          20
           21          22          23          24          25          26          27          28          29          30
           31          32          33          34          35          36          37          38          39          40
 ........................................................................................................................
   1    49.48       48.12      -99.90      -99.90      -99.90      -99.90      -99.90      -99.90      -99.90      -99.90    
       -99.90      -99.90      -99.90      -99.90      -99.90      -99.90      -99.90      -99.90      -99.90      -99.90    
       -99.90      -99.90      -99.90      -99.90      -99.90      -99.90      -99.90      -99.90      -99.90      -99.90    
       -99.90      -99.90      -99.90      -99.90      -99.90      -99.90      -99.90      -99.90      -99.90      -99.90    
   2    48.12       46.96      -99.90      -99.90      -99.90      -99.90      -99.90      -99.90      -99.90      -99.90    
       -99.90      -99.90      -99.90      -99.90      -99.90      -99.90      -99.90      -99.90      -99.90      -99.90    
       -99.90      -99.90      -99.90      -99.90      -99.90      -99.90      -99.90      -99.90      -99.90      -99.90    
       -99.90      -99.90      -99.90      -99.90      -99.90      -99.90      -99.90      -99.90      -99.90      -99.90    
   3   -99.90      -99.90      -99.90      -99.90      -99.90      -99.90      -99.90      -99.90      -99.90      -99.90    
       -99.90      -99.90      -99.90      -99.90      -99.90      -99.90      -99.90      -99.90      -99.90      -99.90    
       -99.90      -99.90      -99.90      -99.90      -99.90      -99.90      -99.90      -99.90      -99.90      -99.90    
       -99.90      -99.90      -99.90      -99.90      -99.90      -99.90      -99.90      -99.90      -99.90      -99.90    
   4   -99.90      -99.90      -99.90      -99.90      -99.90      -99.90      -99.90      -99.90      -99.90      -99.90    
       -99.90      -99.90      -99.90      -99.90      -99.90      -99.90      -99.90      -99.90      -99.90      -99.90    
       -99.90      -99.90      -99.90      -99.90      -99.90      -99.90      -99.90      -99.90      -99.90      -99.90    
       -99.90      -99.90      -99.90      -99.90      -99.90      -99.90      -99.90      -99.90      -99.90      -99.90    
   5   -99.90      -99.90      -99.90      -99.90      -99.90      -99.90      -99.90      -99.90      -99.90      -99.90    
       -99.90      -99.90      -99.90      -99.90      -99.90      -99.90      -99.90      -99.90      -99.90      -99.90    
       -99.90      -99.90      -99.90      -99.90      -99.90      -99.90      -99.90      -99.90      -99.90      -99.90    
       -99.90      -99.90      -99.90      -99.90      -99.90      -99.90      -99.90      -99.90      -99.90      -99.90    
   6   -99.90      -99.90      -99.90      -99.90      -99.90      -99.90      -99.90      -99.90      -99.90      -99.90    
       -99.90      -99.90      -99.90      -99.90      -99.90      -99.90      -99.90      -99.90      -99.90      -99.90    
       -99.90      -99.90      -99.90      -99.90      -99.90      -99.90      -99.90      -99.90      -99.90      -99.90    
       -99.90      -99.90      -99.90      -99.90      -99.90      -99.90      -99.90      -99.90      -99.90      -99.90    
   7   -99.90      -99.90      -99.90      -99.90      -99.90      -99.90      -99.90      -99.90      -99.90      -99.90    
       -99.90      -99.90      -99.90      -99.90      -99.90      -99.90      -99.90      -99.90      -99.90      -99.90    
       -99.90      -99.90      -99.90      -99.90      -99.90      -99.90      -99.90      -99.90      -99.90      -99.90    
       -99.90      -99.90      -99.90      -99.90      -99.90      -99.90      -99.90      -99.90      -99.90      -99.90    
   8   -99.90      -99.90      -99.90      -99.90      -99.90      -99.90      -99.90      -99.90      -99.90      -99.90    
       -99.90      -99.90      -99.90      -99.90      -99.90      -99.90      -99.90      -99.90      -99.90      -99.90    
       -99.90      -99.90      -99.90      -99.90      -99.90      -99.90      -99.90      -99.90      -99.90      -99.90    
       -99.90      -99.90      -99.90      -99.90      -99.90      -99.90      -99.90      -99.90      -99.90      -99.90    
   9   -99.90      -99.90      -99.90      -99.90      -99.90      -99.90      -99.90      -99.90      -99.90      -99.90    
       -99.90      -99.90      -99.90      -99.90      -99.90      -99.90      -99.90      -99.90      -99.90      -99.90    
       -99.90      -99.90      -99.90      -99.90      -99.90      -99.90      -99.90      -99.90      -99.90      -99.90    
       -99.90      -99.90      -99.90      -99.90      -99.90      -99.90      -99.90      -99.90      -99.90      -99.90    
  10   -99.90      -99.90      -99.90      -99.90      -99.90      -99.90      -99.90      -99.90      -99.90      -99.90    
       -99.90      -99.90      -99.90      -99.90      -99.90      -99.90      -99.90      -99.90      -99.90      -99.90    
       -99.90      -99.90      -99.90      -99.90      -99.90      -99.90      -99.90      -99.90      -99.90      -99.90    
       -99.90      -99.90      -99.90      -99.90      -99.90      -99.90      -99.90      -99.90      -99.90      -99.90    
  11   -99.90      -99.90      -99.90      -99.90      -99.90      -99.90      -99.90      -99.90      -99.90      -99.90    
       -99.90      -99.90      -99.90      -99.90      -99.90      -99.90      -99.90      -99.90      -99.90      -99.90    
       -99.90      -99.90      -99.90      -99.90      -99.90      -99.90      -99.90      -99.90      -99.90      -99.90    
       -99.90      -99.90      -99.90      -99.90      -99.90      -99.90      -99.90      -99.90      -99.90      -99.90    
  12   -99.90      -99.90      -99.90      -99.90      -99.90      -99.90      -99.90      -99.90      -99.90      -99.90    
       -99.90      -99.90      -99.90      -99.90      -99.90      -99.90      -99.90      -99.90      -99.90      -99.90    
       -99.90      -99.90      -99.90      -99.90      -99.90      -99.90      -99.90      -99.90      -99.90      -99.90    
       -99.90      -99.90      -99.90      -99.90      -99.90      -99.90      -99.90      -99.90      -99.90      -99.90    
  13   -99.90      -99.90      -99.90      -99.90      -99.90      -99.90      -99.90      -99.90      -99.90      -99.90    
       -99.90      -99.90      -99.90      -99.90      -99.90      -99.90      -99.90      -99.90      -99.90      -99.90    
       -99.90      -99.90      -99.90      -99.90      -99.90      -99.90      -99.90      -99.90      -99.90      -99.90    
       -99.90      -99.90      -99.90      -99.90      -99.90      -99.90      -99.90      -99.90      -99.90      -99.90    
  14   -99.90      -99.90      -99.90      -99.90      -99.90      -99.90      -99.90      -99.90      -99.90      -99.90    
       -99.90      -99.90      -99.90      -99.90      -99.90      -99.90      -99.90      -99.90      -99.90      -99.90    
       -99.90      -99.90      -99.90      -99.90      -99.90      -99.90      -99.90      -99.90      -99.90      -99.90    
       -99.90      -99.90      -99.90      -99.90      -99.90      -99.90      -99.90      -99.90      -99.90      -99.90    
  15   -99.90      -99.90      -99.90      -99.90      -99.90      -99.90      -99.90      -99.90      -99.90      -99.90    
       -99.90      -99.90      -99.90      -99.90      -99.90      -99.90      -99.90      -99.90      -99.90      -99.90    
       -99.90      -99.90      -99.90      -99.90      -99.90      -99.90      -99.90      -99.90      -99.90      -99.90    
       -99.90      -99.90      -99.90      -99.90      -99.90      -99.90      -99.90      -99.90      -99.90      -99.90    
  16   -99.90      -99.90      -99.90      -99.90      -99.90      -99.90      -99.90      -99.90      -99.90      -99.90    
       -99.90      -99.90      -99.90      -99.90      -99.90      -99.90      -99.90      -99.90      -99.90      -99.90    
       -99.90      -99.90      -99.90      -99.90      -99.90      -99.90      -99.90      -99.90      -99.90      -99.90    
       -99.90      -99.90      -99.90      -99.90      -99.90      -99.90      -99.90      -99.90      -99.90      -99.90    
  17   -99.90      -99.90      -99.90      -99.90      -99.90      -99.90      -99.90      -99.90      -99.90      -99.90    
       -99.90      -99.90      -99.90      -99.90      -99.90      -99.90      -99.90      -99.90      -99.90      -99.90    
       -99.90      -99.90      -99.90      -99.90      -99.90      -99.90      -99.90      -99.90      -99.90      -99.90    
       -99.90      -99.90      -99.90      -99.90      -99.90      -99.90      -99.90      -99.90      -99.90      -99.90    
  18   -99.90      -99.90      -99.90      -99.90      -99.90      -99.90      -99.90      -99.90      -99.90      -99.90    
       -99.90      -99.90      -99.90      -99.90      -99.90      -99.90      -99.90      -99.90      -99.90      -99.90    
       -99.90      -99.90      -99.90      -99.90      -99.90      -99.90      -99.90      -99.90      -99.90      -99.90    
       -99.90      -99.90      -99.90      -99.90      -99.90      -99.90      -99.90      -99.90      -99.90      -99.90    
  19   -99.90      -99.90      -99.90      -99.90      -99.90      -99.90      -99.90      -99.90      -99.90      -99.90    
       -99.90      -99.90      -99.90      -99.90      -99.90      -99.90      -99.90      -99.90      -99.90      -99.90    
       -99.90      -99.90      -99.90      -99.90      -99.90      -99.90      -99.90      -99.90      -99.90      -99.90    
       -99.90      -99.90      -99.90      -99.90      -99.90      -99.90      -99.90      -99.90      -99.90      -99.90    
  20   -99.90      -99.90      -99.90      -99.90      -99.90      -99.90      -99.90      -99.90      -99.90      -99.90    
       -99.90      -99.90      -99.90      -99.90      -99.90      -99.90      -99.90      -99.90      -99.90      -99.90    
       -99.90      -99.90      -99.90      -99.90      -99.90      -99.90      -99.90      -99.90      -99.90      -99.90    
       -99.90      -99.90      -99.90      -99.90      -99.90      -99.90      -99.90      -99.90      -99.90      -99.90    
  21   -99.90      -99.90      -99.90      -99.90      -99.90      -99.90      -99.90      -99.90      -99.90      -99.90    
       -99.90      -99.90      -99.90      -99.90      -99.90      -99.90      -99.90      -99.90      -99.90      -99.90    
       -99.90      -99.90      -99.90      -99.90      -99.90      -99.90      -99.90      -99.90      -99.90      -99.90    
       -99.90      -99.90      -99.90      -99.90      -99.90      -99.90      -99.90      -99.90      -99.90      -99.90    
  22   -99.90      -99.90      -99.90      -99.90      -99.90      -99.90      -99.90      -99.90      -99.90      -99.90    
       -99.90      -99.90      -99.90      -99.90      -99.90      -99.90      -99.90      -99.90      -99.90      -99.90    
       -99.90      -99.90      -99.90      -99.90      -99.90      -99.90      -99.90      -99.90      -99.90      -99.90    
       -99.90      -99.90      -99.90      -99.90      -99.90      -99.90      -99.90      -99.90      -99.90      -99.90    
  23   -99.90      -99.90      -99.90      -99.90      -99.90      -99.90      -99.90      -99.90      -99.90      -99.90    
       -99.90      -99.90      -99.90      -99.90      -99.90      -99.90      -99.90      -99.90      -99.90      -99.90    
       -99.90      -99.90      -99.90      -99.90      -99.90      -99.90      -99.90      -99.90      -99.90      -99.90    
       -99.90      -99.90      -99.90      -99.90      -99.90      -99.90      -99.90      -99.90      -99.90      -99.90    
  24   -99.90      -99.90      -99.90      -99.90      -99.90      -99.90      -99.90      -99.90      -99.90      -99.90    
       -99.90      -99.90      -99.90      -99.90      -99.90      -99.90      -99.90      -99.90      -99.90      -99.90    
       -99.90      -99.90      -99.90      -99.90      -99.90      -99.90      -99.90      -99.90      -99.90      -99.90    
       -99.90      -99.90      -99.90      -99.90      -99.90      -99.90      -99.90      -99.90      -99.90      -99.90    
  25   -99.90      -99.90      -99.90      -99.90      -99.90      -99.90      -99.90      -99.90      -99.90      -99.90    
       -99.90      -99.90      -99.90      -99.90      -99.90      -99.90      -99.90      -99.90      -99.90      -99.90    
       -99.90      -99.90      -99.90      -99.90      -99.90      -99.90      -99.90      -99.90      -99.90      -99.90    
       -99.90      -99.90      -99.90      -99.90      -99.90      -99.90      -99.90      -99.90      -99.90      -99.90    
  26   -99.90      -99.90      -99.90      -99.90      -99.90      -99.90      -99.90      -99.90      -99.90      -99.90    
       -99.90      -99.90      -99.90      -99.90      -99.90      -99.90      -99.90      -99.90      -99.90      -99.90    
       -99.90      -99.90      -99.90      -99.90      -99.90      -99.90      -99.90      -99.90      -99.90      -99.90    
       -99.90      -99.90      -99.90      -99.90      -99.90      -99.90      -99.90      -99.90      -99.90      -99.90    
  27   -99.90      -99.90      -99.90      -99.90      -99.90      -99.90      -99.90      -99.90      -99.90      -99.90    
       -99.90      -99.90      -99.90      -99.90      -99.90      -99.90      -99.90      -99.90      -99.90      -99.90    
       -99.90      -99.90      -99.90      -99.90      -99.90      -99.90      -99.90      -99.90      -99.90      -99.90    
       -99.90      -99.90      -99.90      -99.90      -99.90      -99.90      -99.90      -99.90      -99.90      -99.90    
  28   -99.90      -99.90      -99.90      -99.90      -99.90      -99.90      -99.90      -99.90      -99.90      -99.90    
       -99.90      -99.90      -99.90      -99.90      -99.90      -99.90      -99.90      -99.90      -99.90      -99.90    
       -99.90      -99.90      -99.90      -99.90      -99.90      -99.90      -99.90      -99.90      -99.90      -99.90    
       -99.90      -99.90      -99.90      -99.90      -99.90      -99.90      -99.90      -99.90      -99.90      -99.90    
  29   -99.90      -99.90      -99.90      -99.90      -99.90      -99.90      -99.90      -99.90      -99.90      -99.90    
       -99.90      -99.90      -99.90      -99.90      -99.90      -99.90      -99.90      -99.90      -99.90      -99.90    
       -99.90      -99.90      -99.90      -99.90      -99.90      -99.90      -99.90      -99.90      -99.90      -99.90    
       -99.90      -99.90      -99.90      -99.90      -99.90      -99.90      -99.90      -99.90      -99.90      -99.90    
  30   -99.90      -99.90      -99.90      -99.90      -99.90      -99.90      -99.90      -99.90      -99.90      -99.90    
       -99.90      -99.90      -99.90      -99.90      -99.90      -99.90      -99.90      -99.90      -99.90      -99.90    
       -99.90      -99.90      -99.90      -99.90      -99.90      -99.90      -99.90      -99.90      -99.90      -99.90    
       -99.90      -99.90      -99.90      -99.90      -99.90      -99.90      -99.90      -99.90      -99.90      -99.90    
  31   -99.90      -99.90      -99.90      -99.90      -99.90      -99.90      -99.90      -99.90      -99.90      -99.90    
       -99.90      -99.90      -99.90      -99.90      -99.90      -99.90      -99.90      -99.90      -99.90      -99.90    
       -99.90      -99.90      -99.90      -99.90      -99.90      -99.90      -99.90      -99.90      -99.90      -99.90    
       -99.90      -99.90      -99.90      -99.90      -99.90      -99.90      -99.90      -99.90      -99.90      -99.90    
  32   -99.90      -99.90      -99.90      -99.90      -99.90      -99.90      -99.90      -99.90      -99.90      -99.90    
       -99.90      -99.90      -99.90      -99.90      -99.90      -99.90      -99.90      -99.90      -99.90      -99.90    
       -99.90      -99.90      -99.90      -99.90      -99.90      -99.90      -99.90      -99.90      -99.90      -99.90    
       -99.90      -99.90      -99.90      -99.90      -99.90      -99.90      -99.90      -99.90      -99.90      -99.90    
  33   -99.90      -99.90      -99.90      -99.90      -99.90      -99.90      -99.90      -99.90      -99.90      -99.90    
       -99.90      -99.90      -99.90      -99.90      -99.90      -99.90      -99.90      -99.90      -99.90      -99.90    
       -99.90      -99.90      -99.90      -99.90      -99.90      -99.90      -99.90      -99.90      -99.90      -99.90    
       -99.90      -99.90      -99.90      -99.90      -99.90      -99.90      -99.90      -99.90      -99.90      -99.90    
  34   -99.90      -99.90      -99.90      -99.90      -99.90      -99.90      -99.90      -99.90      -99.90      -99.90    
       -99.90      -99.90      -99.90      -99.90      -99.90      -99.90      -99.90      -99.90      -99.90      -99.90    
       -99.90      -99.90      -99.90      -99.90      -99.90      -99.90      -99.90      -99.90      -99.90      -99.90    
       -99.90      -99.90      -99.90      -99.90      -99.90      -99.90      -99.90      -99.90      -99.90      -99.90    
  35   -99.90      -99.90      -99.90      -99.90      -99.90      -99.90      -99.90      -99.90      -99.90      -99.90    
       -99.90      -99.90      -99.90      -99.90      -99.90      -99.90      -99.90      -99.90      -99.90      -99.90    
       -99.90      -99.90      -99.90      -99.90      -99.90      -99.90      -99.90      -99.90      -99.90      -99.90    
       -99.90      -99.90      -99.90      -99.90      -99.90      -99.90      -99.90      -99.90      -99.90      -99.90    
  36   -99.90      -99.90      -99.90      -99.90      -99.90      -99.90      -99.90      -99.90      -99.90      -99.90    
       -99.90      -99.90      -99.90      -99.90      -99.90      -99.90      -99.90      -99.90      -99.90      -99.90    
       -99.90      -99.90      -99.90      -99.90      -99.90      -99.90      -99.90      -99.90      -99.90      -99.90    
       -99.90      -99.90      -99.90      -99.90      -99.90      -99.90      -99.90      -99.90      -99.90      -99.90    
  37   -99.90      -99.90      -99.90      -99.90      -99.90      -99.90      -99.90      -99.90      -99.90      -99.90    
       -99.90      -99.90      -99.90      -99.90      -99.90      -99.90      -99.90      -99.90      -99.90      -99.90    
       -99.90      -99.90      -99.90      -99.90      -99.90      -99.90      -99.90      -99.90      -99.90      -99.90    
       -99.90      -99.90      -99.90      -99.90      -99.90      -99.90      -99.90      -99.90      -99.90      -99.90    
  38   -99.90      -99.90      -99.90      -99.90      -99.90      -99.90      -99.90      -99.90      -99.90      -99.90    
       -99.90      -99.90      -99.90      -99.90      -99.90      -99.90      -99.90      -99.90      -99.90      -99.90    
       -99.90      -99.90      -99.90      -99.90      -99.90      -99.90      -99.90      -99.90      -99.90      -99.90    
       -99.90      -99.90      -99.90      -99.90      -99.90      -99.90      -99.90      -99.90      -99.90      -99.90    
  39   -99.90      -99.90      -99.90      -99.90      -99.90      -99.90      -99.90      -99.90      -99.90      -99.90    
       -99.90      -99.90      -99.90      -99.90      -99.90      -99.90      -99.90      -99.90      -99.90      -99.90    
       -99.90      -99.90      -99.90      -99.90      -99.90      -99.90      -99.90      -99.90      -99.90      -99.90    
       -99.90      -99.90      -99.90      -99.90      -99.90      -99.90      -99.90      -99.90      -99.90      -99.90    
  40   -99.90      -99.90      -99.90      -99.90      -99.90      -99.90      -99.90      -99.90      -99.90      -99.90    
       -99.90      -99.90      -99.90      -99.90      -99.90      -99.90      -99.90      -99.90      -99.90      -99.90    
       -99.90      -99.90      -99.90      -99.90      -99.90      -99.90      -99.90      -99.90      -99.90      -99.90    
       -99.90      -99.90      -99.90      -99.90      -99.90      -99.90      -99.90      -99.90      -99.90      -99.90    
1
              HEAD IN LAYER   6 AT END OF TIME STEP   1 IN STRESS PERIOD    3
  ---------------------------------------------------------------------------

            1           2           3           4           5           6           7           8           9          10
           11          12          13          14          15          16          17          18          19          20
           21          22          23          24          25          26          27          28          29          30
           31          32          33          34          35          36          37          38          39          40
 ........................................................................................................................
   1    48.57       47.14       40.84      -99.90      -99.90      -99.90      -99.90      -99.90      -99.90      -99.90    
       -99.90      -99.90      -99.90      -99.90      -99.90      -99.90      -99.90      -99.90      -99.90      -99.90    
       -99.90      -99.90      -99.90      -99.90      -99.90      -99.90      -99.90      -99.90      -99.90      -99.90    
       -99.90      -99.90      -99.90      -99.90      -99.90      -99.90      -99.90      -99.90      -99.90      -99.90    
   2    47.14       45.96      -99.90      -99.90      -99.90      -99.90      -99.90      -99.90      -99.90      -99.90    
       -99.90      -99.90      -99.90      -99.90      -99.90      -99.90      -99.90      -99.90      -99.90      -99.90    
       -99.90      -99.90      -99.90      -99.90      -99.90      -99.90      -99.90      -99.90      -99.90      -99.90    
       -99.90      -99.90      -99.90      -99.90      -99.90      -99.90      -99.90      -99.90      -99.90      -99.90    
   3    40.84      -99.90      -99.90      -99.90      -99.90      -99.90      -99.90      -99.90      -99.90      -99.90    
       -99.90      -99.90      -99.90      -99.90      -99.90      -99.90      -99.90      -99.90      -99.90      -99.90    
       -99.90      -99.90      -99.90      -99.90      -99.90      -99.90      -99.90      -99.90      -99.90      -99.90    
       -99.90      -99.90      -99.90      -99.90      -99.90      -99.90      -99.90      -99.90      -99.90      -99.90    
   4   -99.90      -99.90      -99.90      -99.90      -99.90      -99.90      -99.90      -99.90      -99.90      -99.90    
       -99.90      -99.90      -99.90      -99.90      -99.90      -99.90      -99.90      -99.90      -99.90      -99.90    
       -99.90      -99.90      -99.90      -99.90      -99.90      -99.90      -99.90      -99.90      -99.90      -99.90    
       -99.90      -99.90      -99.90      -99.90      -99.90      -99.90      -99.90      -99.90      -99.90      -99.90    
   5   -99.90      -99.90      -99.90      -99.90      -99.90      -99.90      -99.90      -99.90      -99.90      -99.90    
       -99.90      -99.90      -99.90      -99.90      -99.90      -99.90      -99.90      -99.90      -99.90      -99.90    
       -99.90      -99.90      -99.90      -99.90      -99.90      -99.90      -99.90      -99.90      -99.90      -99.90    
       -99.90      -99.90      -99.90      -99.90      -99.90      -99.90      -99.90      -99.90      -99.90      -99.90    
   6   -99.90      -99.90      -99.90      -99.90      -99.90      -99.90      -99.90      -99.90      -99.90      -99.90    
       -99.90      -99.90      -99.90      -99.90      -99.90      -99.90      -99.90      -99.90      -99.90      -99.90    
       -99.90      -99.90      -99.90      -99.90      -99.90      -99.90      -99.90      -99.90      -99.90      -99.90    
       -99.90      -99.90      -99.90      -99.90      -99.90      -99.90      -99.90      -99.90      -99.90      -99.90    
   7   -99.90      -99.90      -99.90      -99.90      -99.90      -99.90      -99.90      -99.90      -99.90      -99.90    
       -99.90      -99.90      -99.90      -99.90      -99.90      -99.90      -99.90      -99.90      -99.90      -99.90    
       -99.90      -99.90      -99.90      -99.90      -99.90      -99.90      -99.90      -99.90      -99.90      -99.90    
       -99.90      -99.90      -99.90      -99.90      -99.90      -99.90      -99.90      -99.90      -99.90      -99.90    
   8   -99.90      -99.90      -99.90      -99.90      -99.90      -99.90      -99.90      -99.90      -99.90      -99.90    
       -99.90      -99.90      -99.90      -99.90      -99.90      -99.90      -99.90      -99.90      -99.90      -99.90    
       -99.90      -99.90      -99.90      -99.90      -99.90      -99.90      -99.90      -99.90      -99.90      -99.90    
       -99.90      -99.90      -99.90      -99.90      -99.90      -99.90      -99.90      -99.90      -99.90      -99.90    
   9   -99.90      -99.90      -99.90      -99.90      -99.90      -99.90      -99.90      -99.90      -99.90      -99.90    
       -99.90      -99.90      -99.90      -99.90      -99.90      -99.90      -99.90      -99.90      -99.90      -99.90    
       -99.90      -99.90      -99.90      -99.90      -99.90      -99.90      -99.90      -99.90      -99.90      -99.90    
       -99.90      -99.90      -99.90      -99.90      -99.90      -99.90      -99.90      -99.90      -99.90      -99.90    
  10   -99.90      -99.90      -99.90      -99.90      -99.90      -99.90      -99.90      -99.90      -99.90      -99.90    
       -99.90      -99.90      -99.90      -99.90      -99.90      -99.90      -99.90      -99.90      -99.90      -99.90    
       -99.90      -99.90      -99.90      -99.90      -99.90      -99.90      -99.90      -99.90      -99.90      -99.90    
       -99.90      -99.90      -99.90      -99.90      -99.90      -99.90      -99.90      -99.90      -99.90      -99.90    
  11   -99.90      -99.90      -99.90      -99.90      -99.90      -99.90      -99.90      -99.90      -99.90      -99.90    
       -99.90      -99.90      -99.90      -99.90      -99.90      -99.90      -99.90      -99.90      -99.90      -99.90    
       -99.90      -99.90      -99.90      -99.90      -99.90      -99.90      -99.90      -99.90      -99.90      -99.90    
       -99.90      -99.90      -99.90      -99.90      -99.90      -99.90      -99.90      -99.90      -99.90      -99.90    
  12   -99.90      -99.90      -99.90      -99.90      -99.90      -99.90      -99.90      -99.90      -99.90      -99.90    
       -99.90      -99.90      -99.90      -99.90      -99.90      -99.90      -99.90      -99.90      -99.90      -99.90    
       -99.90      -99.90      -99.90      -99.90      -99.90      -99.90      -99.90      -99.90      -99.90      -99.90    
       -99.90      -99.90      -99.90      -99.90      -99.90      -99.90      -99.90      -99.90      -99.90      -99.90    
  13   -99.90      -99.90      -99.90      -99.90      -99.90      -99.90      -99.90      -99.90      -99.90      -99.90    
       -99.90      -99.90      -99.90      -99.90      -99.90      -99.90      -99.90      -99.90      -99.90      -99.90    
       -99.90      -99.90      -99.90      -99.90      -99.90      -99.90      -99.90      -99.90      -99.90      -99.90    
       -99.90      -99.90      -99.90      -99.90      -99.90      -99.90      -99.90      -99.90      -99.90      -99.90    
  14   -99.90      -99.90      -99.90      -99.90      -99.90      -99.90      -99.90      -99.90      -99.90      -99.90    
       -99.90      -99.90      -99.90      -99.90      -99.90      -99.90      -99.90      -99.90      -99.90      -99.90    
       -99.90      -99.90      -99.90      -99.90      -99.90      -99.90      -99.90      -99.90      -99.90      -99.90    
       -99.90      -99.90      -99.90      -99.90      -99.90      -99.90      -99.90      -99.90      -99.90      -99.90    
  15   -99.90      -99.90      -99.90      -99.90      -99.90      -99.90      -99.90      -99.90      -99.90      -99.90    
       -99.90      -99.90      -99.90      -99.90      -99.90      -99.90      -99.90      -99.90      -99.90      -99.90    
       -99.90      -99.90      -99.90      -99.90      -99.90      -99.90      -99.90      -99.90      -99.90      -99.90    
       -99.90      -99.90      -99.90      -99.90      -99.90      -99.90      -99.90      -99.90      -99.90      -99.90    
  16   -99.90      -99.90      -99.90      -99.90      -99.90      -99.90      -99.90      -99.90      -99.90      -99.90    
       -99.90      -99.90      -99.90      -99.90      -99.90      -99.90      -99.90      -99.90      -99.90      -99.90    
       -99.90      -99.90      -99.90      -99.90      -99.90      -99.90      -99.90      -99.90      -99.90      -99.90    
       -99.90      -99.90      -99.90      -99.90      -99.90      -99.90      -99.90      -99.90      -99.90      -99.90    
  17   -99.90      -99.90      -99.90      -99.90      -99.90      -99.90      -99.90      -99.90      -99.90      -99.90    
       -99.90      -99.90      -99.90      -99.90      -99.90      -99.90      -99.90      -99.90      -99.90      -99.90    
       -99.90      -99.90      -99.90      -99.90      -99.90      -99.90      -99.90      -99.90      -99.90      -99.90    
       -99.90      -99.90      -99.90      -99.90      -99.90      -99.90      -99.90      -99.90      -99.90      -99.90    
  18   -99.90      -99.90      -99.90      -99.90      -99.90      -99.90      -99.90      -99.90      -99.90      -99.90    
       -99.90      -99.90      -99.90      -99.90      -99.90      -99.90      -99.90      -99.90      -99.90      -99.90    
       -99.90      -99.90      -99.90      -99.90      -99.90      -99.90      -99.90      -99.90      -99.90      -99.90    
       -99.90      -99.90      -99.90      -99.90      -99.90      -99.90      -99.90      -99.90      -99.90      -99.90    
  19   -99.90      -99.90      -99.90      -99.90      -99.90      -99.90      -99.90      -99.90      -99.90      -99.90    
       -99.90      -99.90      -99.90      -99.90      -99.90      -99.90      -99.90      -99.90      -99.90      -99.90    
       -99.90      -99.90      -99.90      -99.90      -99.90      -99.90      -99.90      -99.90      -99.90      -99.90    
       -99.90      -99.90      -99.90      -99.90      -99.90      -99.90      -99.90      -99.90      -99.90      -99.90    
  20   -99.90      -99.90      -99.90      -99.90      -99.90      -99.90      -99.90      -99.90      -99.90      -99.90    
       -99.90      -99.90      -99.90      -99.90      -99.90      -99.90      -99.90      -99.90      -99.90      -99.90    
       -99.90      -99.90      -99.90      -99.90      -99.90      -99.90      -99.90      -99.90      -99.90      -99.90    
       -99.90      -99.90      -99.90      -99.90      -99.90      -99.90      -99.90      -99.90      -99.90      -99.90    
  21   -99.90      -99.90      -99.90      -99.90      -99.90      -99.90      -99.90      -99.90      -99.90      -99.90    
       -99.90      -99.90      -99.90      -99.90      -99.90      -99.90      -99.90      -99.90      -99.90      -99.90    
       -99.90      -99.90      -99.90      -99.90      -99.90      -99.90      -99.90      -99.90      -99.90      -99.90    
       -99.90      -99.90      -99.90      -99.90      -99.90      -99.90      -99.90      -99.90      -99.90      -99.90    
  22   -99.90      -99.90      -99.90      -99.90      -99.90      -99.90      -99.90      -99.90      -99.90      -99.90    
       -99.90      -99.90      -99.90      -99.90      -99.90      -99.90      -99.90      -99.90      -99.90      -99.90    
       -99.90      -99.90      -99.90      -99.90      -99.90      -99.90      -99.90      -99.90      -99.90      -99.90    
       -99.90      -99.90      -99.90      -99.90      -99.90      -99.90      -99.90      -99.90      -99.90      -99.90    
  23   -99.90      -99.90      -99.90      -99.90      -99.90      -99.90      -99.90      -99.90      -99.90      -99.90    
       -99.90      -99.90      -99.90      -99.90      -99.90      -99.90      -99.90      -99.90      -99.90      -99.90    
       -99.90      -99.90      -99.90      -99.90      -99.90      -99.90      -99.90      -99.90      -99.90      -99.90    
       -99.90      -99.90      -99.90      -99.90      -99.90      -99.90      -99.90      -99.90      -99.90      -99.90    
  24   -99.90      -99.90      -99.90      -99.90      -99.90      -99.90      -99.90      -99.90      -99.90      -99.90    
       -99.90      -99.90      -99.90      -99.90      -99.90      -99.90      -99.90      -99.90      -99.90      -99.90    
       -99.90      -99.90      -99.90      -99.90      -99.90      -99.90      -99.90      -99.90      -99.90      -99.90    
       -99.90      -99.90      -99.90      -99.90      -99.90      -99.90      -99.90      -99.90      -99.90      -99.90    
  25   -99.90      -99.90      -99.90      -99.90      -99.90      -99.90      -99.90      -99.90      -99.90      -99.90    
       -99.90      -99.90      -99.90      -99.90      -99.90      -99.90      -99.90      -99.90      -99.90      -99.90    
       -99.90      -99.90      -99.90      -99.90      -99.90      -99.90      -99.90      -99.90      -99.90      -99.90    
       -99.90      -99.90      -99.90      -99.90      -99.90      -99.90      -99.90      -99.90      -99.90      -99.90    
  26   -99.90      -99.90      -99.90      -99.90      -99.90      -99.90      -99.90      -99.90      -99.90      -99.90    
       -99.90      -99.90      -99.90      -99.90      -99.90      -99.90      -99.90      -99.90      -99.90      -99.90    
       -99.90      -99.90      -99.90      -99.90      -99.90      -99.90      -99.90      -99.90      -99.90      -99.90    
       -99.90      -99.90      -99.90      -99.90      -99.90      -99.90      -99.90      -99.90      -99.90      -99.90    
  27   -99.90      -99.90      -99.90      -99.90      -99.90      -99.90      -99.90      -99.90      -99.90      -99.90    
       -99.90      -99.90      -99.90      -99.90      -99.90      -99.90      -99.90      -99.90      -99.90      -99.90    
       -99.90      -99.90      -99.90      -99.90      -99.90      -99.90      -99.90      -99.90      -99.90      -99.90    
       -99.90      -99.90      -99.90      -99.90      -99.90      -99.90      -99.90      -99.90      -99.90      -99.90    
  28   -99.90      -99.90      -99.90      -99.90      -99.90      -99.90      -99.90      -99.90      -99.90      -99.90    
       -99.90      -99.90      -99.90      -99.90      -99.90      -99.90      -99.90      -99.90      -99.90      -99.90    
       -99.90      -99.90      -99.90      -99.90      -99.90      -99.90      -99.90      -99.90      -99.90      -99.90    
       -99.90      -99.90      -99.90      -99.90      -99.90      -99.90      -99.90      -99.90      -99.90      -99.90    
  29   -99.90      -99.90      -99.90      -99.90      -99.90      -99.90      -99.90      -99.90      -99.90      -99.90    
       -99.90      -99.90      -99.90      -99.90      -99.90      -99.90      -99.90      -99.90      -99.90      -99.90    
       -99.90      -99.90      -99.90      -99.90      -99.90      -99.90      -99.90      -99.90      -99.90      -99.90    
       -99.90      -99.90      -99.90      -99.90      -99.90      -99.90      -99.90      -99.90      -99.90      -99.90    
  30   -99.90      -99.90      -99.90      -99.90      -99.90      -99.90      -99.90      -99.90      -99.90      -99.90    
       -99.90      -99.90      -99.90      -99.90      -99.90      -99.90      -99.90      -99.90      -99.90      -99.90    
       -99.90      -99.90      -99.90      -99.90      -99.90      -99.90      -99.90      -99.90      -99.90      -99.90    
       -99.90      -99.90      -99.90      -99.90      -99.90      -99.90      -99.90      -99.90      -99.90      -99.90    
  31   -99.90      -99.90      -99.90      -99.90      -99.90      -99.90      -99.90      -99.90      -99.90      -99.90    
       -99.90      -99.90      -99.90      -99.90      -99.90      -99.90      -99.90      -99.90      -99.90      -99.90    
       -99.90      -99.90      -99.90      -99.90      -99.90      -99.90      -99.90      -99.90      -99.90      -99.90    
       -99.90      -99.90      -99.90      -99.90      -99.90      -99.90      -99.90      -99.90      -99.90      -99.90    
  32   -99.90      -99.90      -99.90      -99.90      -99.90      -99.90      -99.90      -99.90      -99.90      -99.90    
       -99.90      -99.90      -99.90      -99.90      -99.90      -99.90      -99.90      -99.90      -99.90      -99.90    
       -99.90      -99.90      -99.90      -99.90      -99.90      -99.90      -99.90      -99.90      -99.90      -99.90    
       -99.90      -99.90      -99.90      -99.90      -99.90      -99.90      -99.90      -99.90      -99.90      -99.90    
  33   -99.90      -99.90      -99.90      -99.90      -99.90      -99.90      -99.90      -99.90      -99.90      -99.90    
       -99.90      -99.90      -99.90      -99.90      -99.90      -99.90      -99.90      -99.90      -99.90      -99.90    
       -99.90      -99.90      -99.90      -99.90      -99.90      -99.90      -99.90      -99.90      -99.90      -99.90    
       -99.90      -99.90      -99.90      -99.90      -99.90      -99.90      -99.90      -99.90      -99.90      -99.90    
  34   -99.90      -99.90      -99.90      -99.90      -99.90      -99.90      -99.90      -99.90      -99.90      -99.90    
       -99.90      -99.90      -99.90      -99.90      -99.90      -99.90      -99.90      -99.90      -99.90      -99.90    
       -99.90      -99.90      -99.90      -99.90      -99.90      -99.90      -99.90      -99.90      -99.90      -99.90    
       -99.90      -99.90      -99.90      -99.90      -99.90      -99.90      -99.90      -99.90      -99.90      -99.90    
  35   -99.90      -99.90      -99.90      -99.90      -99.90      -99.90      -99.90      -99.90      -99.90      -99.90    
       -99.90      -99.90      -99.90      -99.90      -99.90      -99.90      -99.90      -99.90      -99.90      -99.90    
       -99.90      -99.90      -99.90      -99.90      -99.90      -99.90      -99.90      -99.90      -99.90      -99.90    
       -99.90      -99.90      -99.90      -99.90      -99.90      -99.90      -99.90      -99.90      -99.90      -99.90    
  36   -99.90      -99.90      -99.90      -99.90      -99.90      -99.90      -99.90      -99.90      -99.90      -99.90    
       -99.90      -99.90      -99.90      -99.90      -99.90      -99.90      -99.90      -99.90      -99.90      -99.90    
       -99.90      -99.90      -99.90      -99.90      -99.90      -99.90      -99.90      -99.90      -99.90      -99.90    
       -99.90      -99.90      -99.90      -99.90      -99.90      -99.90      -99.90      -99.90      -99.90      -99.90    
  37   -99.90      -99.90      -99.90      -99.90      -99.90      -99.90      -99.90      -99.90      -99.90      -99.90    
       -99.90      -99.90      -99.90      -99.90      -99.90      -99.90      -99.90      -99.90      -99.90      -99.90    
       -99.90      -99.90      -99.90      -99.90      -99.90      -99.90      -99.90      -99.90      -99.90      -99.90    
       -99.90      -99.90      -99.90      -99.90      -99.90      -99.90      -99.90      -99.90      -99.90      -99.90    
  38   -99.90      -99.90      -99.90      -99.90      -99.90      -99.90      -99.90      -99.90      -99.90      -99.90    
       -99.90      -99.90      -99.90      -99.90      -99.90      -99.90      -99.90      -99.90      -99.90      -99.90    
       -99.90      -99.90      -99.90      -99.90      -99.90      -99.90      -99.90      -99.90      -99.90      -99.90    
       -99.90      -99.90      -99.90      -99.90      -99.90      -99.90      -99.90      -99.90      -99.90      -99.90    
  39   -99.90      -99.90      -99.90      -99.90      -99.90      -99.90      -99.90      -99.90      -99.90      -99.90    
       -99.90      -99.90      -99.90      -99.90      -99.90      -99.90      -99.90      -99.90      -99.90      -99.90    
       -99.90      -99.90      -99.90      -99.90      -99.90      -99.90      -99.90      -99.90      -99.90      -99.90    
       -99.90      -99.90      -99.90      -99.90      -99.90      -99.90      -99.90      -99.90      -99.90      -99.90    
  40   -99.90      -99.90      -99.90      -99.90      -99.90      -99.90      -99.90      -99.90      -99.90      -99.90    
       -99.90      -99.90      -99.90      -99.90      -99.90      -99.90      -99.90      -99.90      -99.90      -99.90    
       -99.90      -99.90      -99.90      -99.90      -99.90      -99.90      -99.90      -99.90      -99.90      -99.90    
       -99.90      -99.90      -99.90      -99.90      -99.90      -99.90      -99.90      -99.90      -99.90      -99.90    
1
              HEAD IN LAYER   7 AT END OF TIME STEP   1 IN STRESS PERIOD    3
  ---------------------------------------------------------------------------

            1           2           3           4           5           6           7           8           9          10
           11          12          13          14          15          16          17          18          19          20
           21          22          23          24          25          26          27          28          29          30
           31          32          33          34          35          36          37          38          39          40
 ........................................................................................................................
   1    47.76       46.20       40.81       37.52      -99.90      -99.90      -99.90      -99.90      -99.90      -99.90    
       -99.90      -99.90      -99.90      -99.90      -99.90      -99.90      -99.90      -99.90      -99.90      -99.90    
       -99.90      -99.90      -99.90      -99.90      -99.90      -99.90      -99.90      -99.90      -99.90      -99.90    
       -99.90      -99.90      -99.90      -99.90      -99.90      -99.90      -99.90      -99.90      -99.90      -99.90    
   2    46.20       44.87       39.72       36.81      -99.90      -99.90      -99.90      -99.90      -99.90      -99.90    
       -99.90      -99.90      -99.90      -99.90      -99.90      -99.90      -99.90      -99.90      -99.90      -99.90    
       -99.90      -99.90      -99.90      -99.90      -99.90      -99.90      -99.90      -99.90      -99.90      -99.90    
       -99.90      -99.90      -99.90      -99.90      -99.90      -99.90      -99.90      -99.90      -99.90      -99.90    
   3    40.81       39.72       37.63       35.52      -99.90      -99.90      -99.90      -99.90      -99.90      -99.90    
       -99.90      -99.90      -99.90      -99.90      -99.90      -99.90      -99.90      -99.90      -99.90      -99.90    
       -99.90      -99.90      -99.90      -99.90      -99.90      -99.90      -99.90      -99.90      -99.90      -99.90    
       -99.90      -99.90      -99.90      -99.90      -99.90      -99.90      -99.90      -99.90      -99.90      -99.90    
   4    37.52       36.81       35.52      -99.90      -99.90      -99.90      -99.90      -99.90      -99.90      -99.90    
       -99.90      -99.90      -99.90      -99.90      -99.90      -99.90      -99.90      -99.90      -99.90      -99.90    
       -99.90      -99.90      -99.90      -99.90      -99.90      -99.90      -99.90      -99.90      -99.90      -99.90    
       -99.90      -99.90      -99.90      -99.90      -99.90      -99.90      -99.90      -99.90      -99.90      -99.90    
   5   -99.90      -99.90      -99.90      -99.90      -99.90      -99.90      -99.90      -99.90      -99.90      -99.90    
       -99.90      -99.90      -99.90      -99.90      -99.90      -99.90      -99.90      -99.90      -99.90      -99.90    
       -99.90      -99.90      -99.90      -99.90      -99.90      -99.90      -99.90      -99.90      -99.90      -99.90    
       -99.90      -99.90      -99.90      -99.90      -99.90      -99.90      -99.90      -99.90      -99.90      -99.90    
   6   -99.90      -99.90      -99.90      -99.90      -99.90      -99.90      -99.90      -99.90      -99.90      -99.90    
       -99.90      -99.90      -99.90      -99.90      -99.90      -99.90      -99.90      -99.90      -99.90      -99.90    
       -99.90      -99.90      -99.90      -99.90      -99.90      -99.90      -99.90      -99.90      -99.90      -99.90    
       -99.90      -99.90      -99.90      -99.90      -99.90      -99.90      -99.90      -99.90      -99.90      -99.90    
   7   -99.90      -99.90      -99.90      -99.90      -99.90      -99.90      -99.90      -99.90      -99.90      -99.90    
       -99.90      -99.90      -99.90      -99.90      -99.90      -99.90      -99.90      -99.90      -99.90      -99.90    
       -99.90      -99.90      -99.90      -99.90      -99.90      -99.90      -99.90      -99.90      -99.90      -99.90    
       -99.90      -99.90      -99.90      -99.90      -99.90      -99.90      -99.90      -99.90      -99.90      -99.90    
   8   -99.90      -99.90      -99.90      -99.90      -99.90      -99.90      -99.90      -99.90      -99.90      -99.90    
       -99.90      -99.90      -99.90      -99.90      -99.90      -99.90      -99.90      -99.90      -99.90      -99.90    
       -99.90      -99.90      -99.90      -99.90      -99.90      -99.90      -99.90      -99.90      -99.90      -99.90    
       -99.90      -99.90      -99.90      -99.90      -99.90      -99.90      -99.90      -99.90      -99.90      -99.90    
   9   -99.90      -99.90      -99.90      -99.90      -99.90      -99.90      -99.90      -99.90      -99.90      -99.90    
       -99.90      -99.90      -99.90      -99.90      -99.90      -99.90      -99.90      -99.90      -99.90      -99.90    
       -99.90      -99.90      -99.90      -99.90      -99.90      -99.90      -99.90      -99.90      -99.90      -99.90    
       -99.90      -99.90      -99.90      -99.90      -99.90      -99.90      -99.90      -99.90      -99.90      -99.90    
  10   -99.90      -99.90      -99.90      -99.90      -99.90      -99.90      -99.90      -99.90      -99.90      -99.90    
       -99.90      -99.90      -99.90      -99.90      -99.90      -99.90      -99.90      -99.90      -99.90      -99.90    
       -99.90      -99.90      -99.90      -99.90      -99.90      -99.90      -99.90      -99.90      -99.90      -99.90    
       -99.90      -99.90      -99.90      -99.90      -99.90      -99.90      -99.90      -99.90      -99.90      -99.90    
  11   -99.90      -99.90      -99.90      -99.90      -99.90      -99.90      -99.90      -99.90      -99.90      -99.90    
       -99.90      -99.90      -99.90      -99.90      -99.90      -99.90      -99.90      -99.90      -99.90      -99.90    
       -99.90      -99.90      -99.90      -99.90      -99.90      -99.90      -99.90      -99.90      -99.90      -99.90    
       -99.90      -99.90      -99.90      -99.90      -99.90      -99.90      -99.90      -99.90      -99.90      -99.90    
  12   -99.90      -99.90      -99.90      -99.90      -99.90      -99.90      -99.90      -99.90      -99.90      -99.90    
       -99.90      -99.90      -99.90      -99.90      -99.90      -99.90      -99.90      -99.90      -99.90      -99.90    
       -99.90      -99.90      -99.90      -99.90      -99.90      -99.90      -99.90      -99.90      -99.90      -99.90    
       -99.90      -99.90      -99.90      -99.90      -99.90      -99.90      -99.90      -99.90      -99.90      -99.90    
  13   -99.90      -99.90      -99.90      -99.90      -99.90      -99.90      -99.90      -99.90      -99.90      -99.90    
       -99.90      -99.90      -99.90      -99.90      -99.90      -99.90      -99.90      -99.90      -99.90      -99.90    
       -99.90      -99.90      -99.90      -99.90      -99.90      -99.90      -99.90      -99.90      -99.90      -99.90    
       -99.90      -99.90      -99.90      -99.90      -99.90      -99.90      -99.90      -99.90      -99.90      -99.90    
  14   -99.90      -99.90      -99.90      -99.90      -99.90      -99.90      -99.90      -99.90      -99.90      -99.90    
       -99.90      -99.90      -99.90      -99.90      -99.90      -99.90      -99.90      -99.90      -99.90      -99.90    
       -99.90      -99.90      -99.90      -99.90      -99.90      -99.90      -99.90      -99.90      -99.90      -99.90    
       -99.90      -99.90      -99.90      -99.90      -99.90      -99.90      -99.90      -99.90      -99.90      -99.90    
  15   -99.90      -99.90      -99.90      -99.90      -99.90      -99.90      -99.90      -99.90      -99.90      -99.90    
       -99.90      -99.90      -99.90      -99.90      -99.90      -99.90      -99.90      -99.90      -99.90      -99.90    
       -99.90      -99.90      -99.90      -99.90      -99.90      -99.90      -99.90      -99.90      -99.90      -99.90    
       -99.90      -99.90      -99.90      -99.90      -99.90      -99.90      -99.90      -99.90      -99.90      -99.90    
  16   -99.90      -99.90      -99.90      -99.90      -99.90      -99.90      -99.90      -99.90      -99.90      -99.90    
       -99.90      -99.90      -99.90      -99.90      -99.90      -99.90      -99.90      -99.90      -99.90      -99.90    
       -99.90      -99.90      -99.90      -99.90      -99.90      -99.90      -99.90      -99.90      -99.90      -99.90    
       -99.90      -99.90      -99.90      -99.90      -99.90      -99.90      -99.90      -99.90      -99.90      -99.90    
  17   -99.90      -99.90      -99.90      -99.90      -99.90      -99.90      -99.90      -99.90      -99.90      -99.90    
       -99.90      -99.90      -99.90      -99.90      -99.90      -99.90      -99.90      -99.90      -99.90      -99.90    
       -99.90      -99.90      -99.90      -99.90      -99.90      -99.90      -99.90      -99.90      -99.90      -99.90    
       -99.90      -99.90      -99.90      -99.90      -99.90      -99.90      -99.90      -99.90      -99.90      -99.90    
  18   -99.90      -99.90      -99.90      -99.90      -99.90      -99.90      -99.90      -99.90      -99.90      -99.90    
       -99.90      -99.90      -99.90      -99.90      -99.90      -99.90      -99.90      -99.90      -99.90      -99.90    
       -99.90      -99.90      -99.90      -99.90      -99.90      -99.90      -99.90      -99.90      -99.90      -99.90    
       -99.90      -99.90      -99.90      -99.90      -99.90      -99.90      -99.90      -99.90      -99.90      -99.90    
  19   -99.90      -99.90      -99.90      -99.90      -99.90      -99.90      -99.90      -99.90      -99.90      -99.90    
       -99.90      -99.90      -99.90      -99.90      -99.90      -99.90      -99.90      -99.90      -99.90      -99.90    
       -99.90      -99.90      -99.90      -99.90      -99.90      -99.90      -99.90      -99.90      -99.90      -99.90    
       -99.90      -99.90      -99.90      -99.90      -99.90      -99.90      -99.90      -99.90      -99.90      -99.90    
  20   -99.90      -99.90      -99.90      -99.90      -99.90      -99.90      -99.90      -99.90      -99.90      -99.90    
       -99.90      -99.90      -99.90      -99.90      -99.90      -99.90      -99.90      -99.90      -99.90      -99.90    
       -99.90      -99.90      -99.90      -99.90      -99.90      -99.90      -99.90      -99.90      -99.90      -99.90    
       -99.90      -99.90      -99.90      -99.90      -99.90      -99.90      -99.90      -99.90      -99.90      -99.90    
  21   -99.90      -99.90      -99.90      -99.90      -99.90      -99.90      -99.90      -99.90      -99.90      -99.90    
       -99.90      -99.90      -99.90      -99.90      -99.90      -99.90      -99.90      -99.90      -99.90      -99.90    
       -99.90      -99.90      -99.90      -99.90      -99.90      -99.90      -99.90      -99.90      -99.90      -99.90    
       -99.90      -99.90      -99.90      -99.90      -99.90      -99.90      -99.90      -99.90      -99.90      -99.90    
  22   -99.90      -99.90      -99.90      -99.90      -99.90      -99.90      -99.90      -99.90      -99.90      -99.90    
       -99.90      -99.90      -99.90      -99.90      -99.90      -99.90      -99.90      -99.90      -99.90      -99.90    
       -99.90      -99.90      -99.90      -99.90      -99.90      -99.90      -99.90      -99.90      -99.90      -99.90    
       -99.90      -99.90      -99.90      -99.90      -99.90      -99.90      -99.90      -99.90      -99.90      -99.90    
  23   -99.90      -99.90      -99.90      -99.90      -99.90      -99.90      -99.90      -99.90      -99.90      -99.90    
       -99.90      -99.90      -99.90      -99.90      -99.90      -99.90      -99.90      -99.90      -99.90      -99.90    
       -99.90      -99.90      -99.90      -99.90      -99.90      -99.90      -99.90      -99.90      -99.90      -99.90    
       -99.90      -99.90      -99.90      -99.90      -99.90      -99.90      -99.90      -99.90      -99.90      -99.90    
  24   -99.90      -99.90      -99.90      -99.90      -99.90      -99.90      -99.90      -99.90      -99.90      -99.90    
       -99.90      -99.90      -99.90      -99.90      -99.90      -99.90      -99.90      -99.90      -99.90      -99.90    
       -99.90      -99.90      -99.90      -99.90      -99.90      -99.90      -99.90      -99.90      -99.90      -99.90    
       -99.90      -99.90      -99.90      -99.90      -99.90      -99.90      -99.90      -99.90      -99.90      -99.90    
  25   -99.90      -99.90      -99.90      -99.90      -99.90      -99.90      -99.90      -99.90      -99.90      -99.90    
       -99.90      -99.90      -99.90      -99.90      -99.90      -99.90      -99.90      -99.90      -99.90      -99.90    
       -99.90      -99.90      -99.90      -99.90      -99.90      -99.90      -99.90      -99.90      -99.90      -99.90    
       -99.90      -99.90      -99.90      -99.90      -99.90      -99.90      -99.90      -99.90      -99.90      -99.90    
  26   -99.90      -99.90      -99.90      -99.90      -99.90      -99.90      -99.90      -99.90      -99.90      -99.90    
       -99.90      -99.90      -99.90      -99.90      -99.90      -99.90      -99.90      -99.90      -99.90      -99.90    
       -99.90      -99.90      -99.90      -99.90      -99.90      -99.90      -99.90      -99.90      -99.90      -99.90    
       -99.90      -99.90      -99.90      -99.90      -99.90      -99.90      -99.90      -99.90      -99.90      -99.90    
  27   -99.90      -99.90      -99.90      -99.90      -99.90      -99.90      -99.90      -99.90      -99.90      -99.90    
       -99.90      -99.90      -99.90      -99.90      -99.90      -99.90      -99.90      -99.90      -99.90      -99.90    
       -99.90      -99.90      -99.90      -99.90      -99.90      -99.90      -99.90      -99.90      -99.90      -99.90    
       -99.90      -99.90      -99.90      -99.90      -99.90      -99.90      -99.90      -99.90      -99.90      -99.90    
  28   -99.90      -99.90      -99.90      -99.90      -99.90      -99.90      -99.90      -99.90      -99.90      -99.90    
       -99.90      -99.90      -99.90      -99.90      -99.90      -99.90      -99.90      -99.90      -99.90      -99.90    
       -99.90      -99.90      -99.90      -99.90      -99.90      -99.90      -99.90      -99.90      -99.90      -99.90    
       -99.90      -99.90      -99.90      -99.90      -99.90      -99.90      -99.90      -99.90      -99.90      -99.90    
  29   -99.90      -99.90      -99.90      -99.90      -99.90      -99.90      -99.90      -99.90      -99.90      -99.90    
       -99.90      -99.90      -99.90      -99.90      -99.90      -99.90      -99.90      -99.90      -99.90      -99.90    
       -99.90      -99.90      -99.90      -99.90      -99.90      -99.90      -99.90      -99.90      -99.90      -99.90    
       -99.90      -99.90      -99.90      -99.90      -99.90      -99.90      -99.90      -99.90      -99.90      -99.90    
  30   -99.90      -99.90      -99.90      -99.90      -99.90      -99.90      -99.90      -99.90      -99.90      -99.90    
       -99.90      -99.90      -99.90      -99.90      -99.90      -99.90      -99.90      -99.90      -99.90      -99.90    
       -99.90      -99.90      -99.90      -99.90      -99.90      -99.90      -99.90      -99.90      -99.90      -99.90    
       -99.90      -99.90      -99.90      -99.90      -99.90      -99.90      -99.90      -99.90      -99.90      -99.90    
  31   -99.90      -99.90      -99.90      -99.90      -99.90      -99.90      -99.90      -99.90      -99.90      -99.90    
       -99.90      -99.90      -99.90      -99.90      -99.90      -99.90      -99.90      -99.90      -99.90      -99.90    
       -99.90      -99.90      -99.90      -99.90      -99.90      -99.90      -99.90      -99.90      -99.90      -99.90    
       -99.90      -99.90      -99.90      -99.90      -99.90      -99.90      -99.90      -99.90      -99.90      -99.90    
  32   -99.90      -99.90      -99.90      -99.90      -99.90      -99.90      -99.90      -99.90      -99.90      -99.90    
       -99.90      -99.90      -99.90      -99.90      -99.90      -99.90      -99.90      -99.90      -99.90      -99.90    
       -99.90      -99.90      -99.90      -99.90      -99.90      -99.90      -99.90      -99.90      -99.90      -99.90    
       -99.90      -99.90      -99.90      -99.90      -99.90      -99.90      -99.90      -99.90      -99.90      -99.90    
  33   -99.90      -99.90      -99.90      -99.90      -99.90      -99.90      -99.90      -99.90      -99.90      -99.90    
       -99.90      -99.90      -99.90      -99.90      -99.90      -99.90      -99.90      -99.90      -99.90      -99.90    
       -99.90      -99.90      -99.90      -99.90      -99.90      -99.90      -99.90      -99.90      -99.90      -99.90    
       -99.90      -99.90      -99.90      -99.90      -99.90      -99.90      -99.90      -99.90      -99.90      -99.90    
  34   -99.90      -99.90      -99.90      -99.90      -99.90      -99.90      -99.90      -99.90      -99.90      -99.90    
       -99.90      -99.90      -99.90      -99.90      -99.90      -99.90      -99.90      -99.90      -99.90      -99.90    
       -99.90      -99.90      -99.90      -99.90      -99.90      -99.90      -99.90      -99.90      -99.90      -99.90    
       -99.90      -99.90      -99.90      -99.90      -99.90      -99.90      -99.90      -99.90      -99.90      -99.90    
  35   -99.90      -99.90      -99.90      -99.90      -99.90      -99.90      -99.90      -99.90      -99.90      -99.90    
       -99.90      -99.90      -99.90      -99.90      -99.90      -99.90      -99.90      -99.90      -99.90      -99.90    
       -99.90      -99.90      -99.90      -99.90      -99.90      -99.90      -99.90      -99.90      -99.90      -99.90    
       -99.90      -99.90      -99.90      -99.90      -99.90      -99.90      -99.90      -99.90      -99.90      -99.90    
  36   -99.90      -99.90      -99.90      -99.90      -99.90      -99.90      -99.90      -99.90      -99.90      -99.90    
       -99.90      -99.90      -99.90      -99.90      -99.90      -99.90      -99.90      -99.90      -99.90      -99.90    
       -99.90      -99.90      -99.90      -99.90      -99.90      -99.90      -99.90      -99.90      -99.90      -99.90    
       -99.90      -99.90      -99.90      -99.90      -99.90      -99.90      -99.90      -99.90      -99.90      -99.90    
  37   -99.90      -99.90      -99.90      -99.90      -99.90      -99.90      -99.90      -99.90      -99.90      -99.90    
       -99.90      -99.90      -99.90      -99.90      -99.90      -99.90      -99.90      -99.90      -99.90      -99.90    
       -99.90      -99.90      -99.90      -99.90      -99.90      -99.90      -99.90      -99.90      -99.90      -99.90    
       -99.90      -99.90      -99.90      -99.90      -99.90      -99.90      -99.90      -99.90      -99.90      -99.90    
  38   -99.90      -99.90      -99.90      -99.90      -99.90      -99.90      -99.90      -99.90      -99.90      -99.90    
       -99.90      -99.90      -99.90      -99.90      -99.90      -99.90      -99.90      -99.90      -99.90      -99.90    
       -99.90      -99.90      -99.90      -99.90      -99.90      -99.90      -99.90      -99.90      -99.90      -99.90    
       -99.90      -99.90      -99.90      -99.90      -99.90      -99.90      -99.90      -99.90      -99.90      -99.90    
  39   -99.90      -99.90      -99.90      -99.90      -99.90      -99.90      -99.90      -99.90      -99.90      -99.90    
       -99.90      -99.90      -99.90      -99.90      -99.90      -99.90      -99.90      -99.90      -99.90      -99.90    
       -99.90      -99.90      -99.90      -99.90      -99.90      -99.90      -99.90      -99.90      -99.90      -99.90    
       -99.90      -99.90      -99.90      -99.90      -99.90      -99.90      -99.90      -99.90      -99.90      -99.90    
  40   -99.90      -99.90      -99.90      -99.90      -99.90      -99.90      -99.90      -99.90      -99.90      -99.90    
       -99.90      -99.90      -99.90      -99.90      -99.90      -99.90      -99.90      -99.90      -99.90      -99.90    
       -99.90      -99.90      -99.90      -99.90      -99.90      -99.90      -99.90      -99.90      -99.90      -99.90    
       -99.90      -99.90      -99.90      -99.90      -99.90      -99.90      -99.90      -99.90      -99.90      -99.90    
1
              HEAD IN LAYER   8 AT END OF TIME STEP   1 IN STRESS PERIOD    3
  ---------------------------------------------------------------------------

            1           2           3           4           5           6           7           8           9          10
           11          12          13          14          15          16          17          18          19          20
           21          22          23          24          25          26          27          28          29          30
           31          32          33          34          35          36          37          38          39          40
 ........................................................................................................................
   1    47.04       45.42       40.72       37.49       34.94       32.98       31.37      -99.90      -99.90      -99.90    
       -99.90      -99.90      -99.90      -99.90      -99.90      -99.90      -99.90      -99.90      -99.90      -99.90    
       -99.90      -99.90      -99.90      -99.90      -99.90      -99.90      -99.90      -99.90      -99.90      -99.90    
       -99.90      -99.90      -99.90      -99.90      -99.90      -99.90      -99.90      -99.90      -99.90      -99.90    
   2    45.42       44.03       39.65       36.79       34.49       32.67       31.11      -99.90      -99.90      -99.90    
       -99.90      -99.90      -99.90      -99.90      -99.90      -99.90      -99.90      -99.90      -99.90      -99.90    
       -99.90      -99.90      -99.90      -99.90      -99.90      -99.90      -99.90      -99.90      -99.90      -99.90    
       -99.90      -99.90      -99.90      -99.90      -99.90      -99.90      -99.90      -99.90      -99.90      -99.90    
   3    40.72       39.65       37.59       35.52       33.68       32.10       30.74      -99.90      -99.90      -99.90    
       -99.90      -99.90      -99.90      -99.90      -99.90      -99.90      -99.90      -99.90      -99.90      -99.90    
       -99.90      -99.90      -99.90      -99.90      -99.90      -99.90      -99.90      -99.90      -99.90      -99.90    
       -99.90      -99.90      -99.90      -99.90      -99.90      -99.90      -99.90      -99.90      -99.90      -99.90    
   4    37.49       36.79       35.52       34.08       32.67       31.38      -99.90      -99.90      -99.90      -99.90    
       -99.90      -99.90      -99.90      -99.90      -99.90      -99.90      -99.90      -99.90      -99.90      -99.90    
       -99.90      -99.90      -99.90      -99.90      -99.90      -99.90      -99.90      -99.90      -99.90      -99.90    
       -99.90      -99.90      -99.90      -99.90      -99.90      -99.90      -99.90      -99.90      -99.90      -99.90    
   5    34.94       34.49       33.68       32.67       31.60       30.56      -99.90      -99.90      -99.90      -99.90    
       -99.90      -99.90      -99.90      -99.90      -99.90      -99.90      -99.90      -99.90      -99.90      -99.90    
       -99.90      -99.90      -99.90      -99.90      -99.90      -99.90      -99.90      -99.90      -99.90      -99.90    
       -99.90      -99.90      -99.90      -99.90      -99.90      -99.90      -99.90      -99.90      -99.90      -99.90    
   6    32.98       32.67       32.10       31.38       30.56      -99.90      -99.90      -99.90      -99.90      -99.90    
       -99.90      -99.90      -99.90      -99.90      -99.90      -99.90      -99.90      -99.90      -99.90      -99.90    
       -99.90      -99.90      -99.90      -99.90      -99.90      -99.90      -99.90      -99.90      -99.90      -99.90    
       -99.90      -99.90      -99.90      -99.90      -99.90      -99.90      -99.90      -99.90      -99.90      -99.90    
   7    31.37       31.11       30.74      -99.90      -99.90      -99.90      -99.90      -99.90      -99.90      -99.90    
       -99.90      -99.90      -99.90      -99.90      -99.90      -99.90      -99.90      -99.90      -99.90      -99.90    
       -99.90      -99.90      -99.90      -99.90      -99.90      -99.90      -99.90      -99.90      -99.90      -99.90    
       -99.90      -99.90      -99.90      -99.90      -99.90      -99.90      -99.90      -99.90      -99.90      -99.90    
   8   -99.90      -99.90      -99.90      -99.90      -99.90      -99.90      -99.90      -99.90      -99.90      -99.90    
       -99.90      -99.90      -99.90      -99.90      -99.90      -99.90      -99.90      -99.90      -99.90      -99.90    
       -99.90      -99.90      -99.90      -99.90      -99.90      -99.90      -99.90      -99.90      -99.90      -99.90    
       -99.90      -99.90      -99.90      -99.90      -99.90      -99.90      -99.90      -99.90      -99.90      -99.90    
   9   -99.90      -99.90      -99.90      -99.90      -99.90      -99.90      -99.90      -99.90      -99.90      -99.90    
       -99.90      -99.90      -99.90      -99.90      -99.90      -99.90      -99.90      -99.90      -99.90      -99.90    
       -99.90      -99.90      -99.90      -99.90      -99.90      -99.90      -99.90      -99.90      -99.90      -99.90    
       -99.90      -99.90      -99.90      -99.90      -99.90      -99.90      -99.90      -99.90      -99.90      -99.90    
  10   -99.90      -99.90      -99.90      -99.90      -99.90      -99.90      -99.90      -99.90      -99.90      -99.90    
       -99.90      -99.90      -99.90      -99.90      -99.90      -99.90      -99.90      -99.90      -99.90      -99.90    
       -99.90      -99.90      -99.90      -99.90      -99.90      -99.90      -99.90      -99.90      -99.90      -99.90    
       -99.90      -99.90      -99.90      -99.90      -99.90      -99.90      -99.90      -99.90      -99.90      -99.90    
  11   -99.90      -99.90      -99.90      -99.90      -99.90      -99.90      -99.90      -99.90      -99.90      -99.90    
       -99.90      -99.90      -99.90      -99.90      -99.90      -99.90      -99.90      -99.90      -99.90      -99.90    
       -99.90      -99.90      -99.90      -99.90      -99.90      -99.90      -99.90      -99.90      -99.90      -99.90    
       -99.90      -99.90      -99.90      -99.90      -99.90      -99.90      -99.90      -99.90      -99.90      -99.90    
  12   -99.90      -99.90      -99.90      -99.90      -99.90      -99.90      -99.90      -99.90      -99.90      -99.90    
       -99.90      -99.90      -99.90      -99.90      -99.90      -99.90      -99.90      -99.90      -99.90      -99.90    
       -99.90      -99.90      -99.90      -99.90      -99.90      -99.90      -99.90      -99.90      -99.90      -99.90    
       -99.90      -99.90      -99.90      -99.90      -99.90      -99.90      -99.90      -99.90      -99.90      -99.90    
  13   -99.90      -99.90      -99.90      -99.90      -99.90      -99.90      -99.90      -99.90      -99.90      -99.90    
       -99.90      -99.90      -99.90      -99.90      -99.90      -99.90      -99.90      -99.90      -99.90      -99.90    
       -99.90      -99.90      -99.90      -99.90      -99.90      -99.90      -99.90      -99.90      -99.90      -99.90    
       -99.90      -99.90      -99.90      -99.90      -99.90      -99.90      -99.90      -99.90      -99.90      -99.90    
  14   -99.90      -99.90      -99.90      -99.90      -99.90      -99.90      -99.90      -99.90      -99.90      -99.90    
       -99.90      -99.90      -99.90      -99.90      -99.90      -99.90      -99.90      -99.90      -99.90      -99.90    
       -99.90      -99.90      -99.90      -99.90      -99.90      -99.90      -99.90      -99.90      -99.90      -99.90    
       -99.90      -99.90      -99.90      -99.90      -99.90      -99.90      -99.90      -99.90      -99.90      -99.90    
  15   -99.90      -99.90      -99.90      -99.90      -99.90      -99.90      -99.90      -99.90      -99.90      -99.90    
       -99.90      -99.90      -99.90      -99.90      -99.90      -99.90      -99.90      -99.90      -99.90      -99.90    
       -99.90      -99.90      -99.90      -99.90      -99.90      -99.90      -99.90      -99.90      -99.90      -99.90    
       -99.90      -99.90      -99.90      -99.90      -99.90      -99.90      -99.90      -99.90      -99.90      -99.90    
  16   -99.90      -99.90      -99.90      -99.90      -99.90      -99.90      -99.90      -99.90      -99.90      -99.90    
       -99.90      -99.90      -99.90      -99.90      -99.90      -99.90      -99.90      -99.90      -99.90      -99.90    
       -99.90      -99.90      -99.90      -99.90      -99.90      -99.90      -99.90      -99.90      -99.90      -99.90    
       -99.90      -99.90      -99.90      -99.90      -99.90      -99.90      -99.90      -99.90      -99.90      -99.90    
  17   -99.90      -99.90      -99.90      -99.90      -99.90      -99.90      -99.90      -99.90      -99.90      -99.90    
       -99.90      -99.90      -99.90      -99.90      -99.90      -99.90      -99.90      -99.90      -99.90      -99.90    
       -99.90      -99.90      -99.90      -99.90      -99.90      -99.90      -99.90      -99.90      -99.90      -99.90    
       -99.90      -99.90      -99.90      -99.90      -99.90      -99.90      -99.90      -99.90      -99.90      -99.90    
  18   -99.90      -99.90      -99.90      -99.90      -99.90      -99.90      -99.90      -99.90      -99.90      -99.90    
       -99.90      -99.90      -99.90      -99.90      -99.90      -99.90      -99.90      -99.90      -99.90      -99.90    
       -99.90      -99.90      -99.90      -99.90      -99.90      -99.90      -99.90      -99.90      -99.90      -99.90    
       -99.90      -99.90      -99.90      -99.90      -99.90      -99.90      -99.90      -99.90      -99.90      -99.90    
  19   -99.90      -99.90      -99.90      -99.90      -99.90      -99.90      -99.90      -99.90      -99.90      -99.90    
       -99.90      -99.90      -99.90      -99.90      -99.90      -99.90      -99.90      -99.90      -99.90      -99.90    
       -99.90      -99.90      -99.90      -99.90      -99.90      -99.90      -99.90      -99.90      -99.90      -99.90    
       -99.90      -99.90      -99.90      -99.90      -99.90      -99.90      -99.90      -99.90      -99.90      -99.90    
  20   -99.90      -99.90      -99.90      -99.90      -99.90      -99.90      -99.90      -99.90      -99.90      -99.90    
       -99.90      -99.90      -99.90      -99.90      -99.90      -99.90      -99.90      -99.90      -99.90      -99.90    
       -99.90      -99.90      -99.90      -99.90      -99.90      -99.90      -99.90      -99.90      -99.90      -99.90    
       -99.90      -99.90      -99.90      -99.90      -99.90      -99.90      -99.90      -99.90      -99.90      -99.90    
  21   -99.90      -99.90      -99.90      -99.90      -99.90      -99.90      -99.90      -99.90      -99.90      -99.90    
       -99.90      -99.90      -99.90      -99.90      -99.90      -99.90      -99.90      -99.90      -99.90      -99.90    
       -99.90      -99.90      -99.90      -99.90      -99.90      -99.90      -99.90      -99.90      -99.90      -99.90    
       -99.90      -99.90      -99.90      -99.90      -99.90      -99.90      -99.90      -99.90      -99.90      -99.90    
  22   -99.90      -99.90      -99.90      -99.90      -99.90      -99.90      -99.90      -99.90      -99.90      -99.90    
       -99.90      -99.90      -99.90      -99.90      -99.90      -99.90      -99.90      -99.90      -99.90      -99.90    
       -99.90      -99.90      -99.90      -99.90      -99.90      -99.90      -99.90      -99.90      -99.90      -99.90    
       -99.90      -99.90      -99.90      -99.90      -99.90      -99.90      -99.90      -99.90      -99.90      -99.90    
  23   -99.90      -99.90      -99.90      -99.90      -99.90      -99.90      -99.90      -99.90      -99.90      -99.90    
       -99.90      -99.90      -99.90      -99.90      -99.90      -99.90      -99.90      -99.90      -99.90      -99.90    
       -99.90      -99.90      -99.90      -99.90      -99.90      -99.90      -99.90      -99.90      -99.90      -99.90    
       -99.90      -99.90      -99.90      -99.90      -99.90      -99.90      -99.90      -99.90      -99.90      -99.90    
  24   -99.90      -99.90      -99.90      -99.90      -99.90      -99.90      -99.90      -99.90      -99.90      -99.90    
       -99.90      -99.90      -99.90      -99.90      -99.90      -99.90      -99.90      -99.90      -99.90      -99.90    
       -99.90      -99.90      -99.90      -99.90      -99.90      -99.90      -99.90      -99.90      -99.90      -99.90    
       -99.90      -99.90      -99.90      -99.90      -99.90      -99.90      -99.90      -99.90      -99.90      -99.90    
  25   -99.90      -99.90      -99.90      -99.90      -99.90      -99.90      -99.90      -99.90      -99.90      -99.90    
       -99.90      -99.90      -99.90      -99.90      -99.90      -99.90      -99.90      -99.90      -99.90      -99.90    
       -99.90      -99.90      -99.90      -99.90      -99.90      -99.90      -99.90      -99.90      -99.90      -99.90    
       -99.90      -99.90      -99.90      -99.90      -99.90      -99.90      -99.90      -99.90      -99.90      -99.90    
  26   -99.90      -99.90      -99.90      -99.90      -99.90      -99.90      -99.90      -99.90      -99.90      -99.90    
       -99.90      -99.90      -99.90      -99.90      -99.90      -99.90      -99.90      -99.90      -99.90      -99.90    
       -99.90      -99.90      -99.90      -99.90      -99.90      -99.90      -99.90      -99.90      -99.90      -99.90    
       -99.90      -99.90      -99.90      -99.90      -99.90      -99.90      -99.90      -99.90      -99.90      -99.90    
  27   -99.90      -99.90      -99.90      -99.90      -99.90      -99.90      -99.90      -99.90      -99.90      -99.90    
       -99.90      -99.90      -99.90      -99.90      -99.90      -99.90      -99.90      -99.90      -99.90      -99.90    
       -99.90      -99.90      -99.90      -99.90      -99.90      -99.90      -99.90      -99.90      -99.90      -99.90    
       -99.90      -99.90      -99.90      -99.90      -99.90      -99.90      -99.90      -99.90      -99.90      -99.90    
  28   -99.90      -99.90      -99.90      -99.90      -99.90      -99.90      -99.90      -99.90      -99.90      -99.90    
       -99.90      -99.90      -99.90      -99.90      -99.90      -99.90      -99.90      -99.90      -99.90      -99.90    
       -99.90      -99.90      -99.90      -99.90      -99.90      -99.90      -99.90      -99.90      -99.90      -99.90    
       -99.90      -99.90      -99.90      -99.90      -99.90      -99.90      -99.90      -99.90      -99.90      -99.90    
  29   -99.90      -99.90      -99.90      -99.90      -99.90      -99.90      -99.90      -99.90      -99.90      -99.90    
       -99.90      -99.90      -99.90      -99.90      -99.90      -99.90      -99.90      -99.90      -99.90      -99.90    
       -99.90      -99.90      -99.90      -99.90      -99.90      -99.90      -99.90      -99.90      -99.90      -99.90    
       -99.90      -99.90      -99.90      -99.90      -99.90      -99.90      -99.90      -99.90      -99.90      -99.90    
  30   -99.90      -99.90      -99.90      -99.90      -99.90      -99.90      -99.90      -99.90      -99.90      -99.90    
       -99.90      -99.90      -99.90      -99.90      -99.90      -99.90      -99.90      -99.90      -99.90      -99.90    
       -99.90      -99.90      -99.90      -99.90      -99.90      -99.90      -99.90      -99.90      -99.90      -99.90    
       -99.90      -99.90      -99.90      -99.90      -99.90      -99.90      -99.90      -99.90      -99.90      -99.90    
  31   -99.90      -99.90      -99.90      -99.90      -99.90      -99.90      -99.90      -99.90      -99.90      -99.90    
       -99.90      -99.90      -99.90      -99.90      -99.90      -99.90      -99.90      -99.90      -99.90      -99.90    
       -99.90      -99.90      -99.90      -99.90      -99.90      -99.90      -99.90      -99.90      -99.90      -99.90    
       -99.90      -99.90      -99.90      -99.90      -99.90      -99.90      -99.90      -99.90      -99.90      -99.90    
  32   -99.90      -99.90      -99.90      -99.90      -99.90      -99.90      -99.90      -99.90      -99.90      -99.90    
       -99.90      -99.90      -99.90      -99.90      -99.90      -99.90      -99.90      -99.90      -99.90      -99.90    
       -99.90      -99.90      -99.90      -99.90      -99.90      -99.90      -99.90      -99.90      -99.90      -99.90    
       -99.90      -99.90      -99.90      -99.90      -99.90      -99.90      -99.90      -99.90      -99.90      -99.90    
  33   -99.90      -99.90      -99.90      -99.90      -99.90      -99.90      -99.90      -99.90      -99.90      -99.90    
       -99.90      -99.90      -99.90      -99.90      -99.90      -99.90      -99.90      -99.90      -99.90      -99.90    
       -99.90      -99.90      -99.90      -99.90      -99.90      -99.90      -99.90      -99.90      -99.90      -99.90    
       -99.90      -99.90      -99.90      -99.90      -99.90      -99.90      -99.90      -99.90      -99.90      -99.90    
  34   -99.90      -99.90      -99.90      -99.90      -99.90      -99.90      -99.90      -99.90      -99.90      -99.90    
       -99.90      -99.90      -99.90      -99.90      -99.90      -99.90      -99.90      -99.90      -99.90      -99.90    
       -99.90      -99.90      -99.90      -99.90      -99.90      -99.90      -99.90      -99.90      -99.90      -99.90    
       -99.90      -99.90      -99.90      -99.90      -99.90      -99.90      -99.90      -99.90      -99.90      -99.90    
  35   -99.90      -99.90      -99.90      -99.90      -99.90      -99.90      -99.90      -99.90      -99.90      -99.90    
       -99.90      -99.90      -99.90      -99.90      -99.90      -99.90      -99.90      -99.90      -99.90      -99.90    
       -99.90      -99.90      -99.90      -99.90      -99.90      -99.90      -99.90      -99.90      -99.90      -99.90    
       -99.90      -99.90      -99.90      -99.90      -99.90      -99.90      -99.90      -99.90      -99.90      -99.90    
  36   -99.90      -99.90      -99.90      -99.90      -99.90      -99.90      -99.90      -99.90      -99.90      -99.90    
       -99.90      -99.90      -99.90      -99.90      -99.90      -99.90      -99.90      -99.90      -99.90      -99.90    
       -99.90      -99.90      -99.90      -99.90      -99.90      -99.90      -99.90      -99.90      -99.90      -99.90    
       -99.90      -99.90      -99.90      -99.90      -99.90      -99.90      -99.90      -99.90      -99.90      -99.90    
  37   -99.90      -99.90      -99.90      -99.90      -99.90      -99.90      -99.90      -99.90      -99.90      -99.90    
       -99.90      -99.90      -99.90      -99.90      -99.90      -99.90      -99.90      -99.90      -99.90      -99.90    
       -99.90      -99.90      -99.90      -99.90      -99.90      -99.90      -99.90      -99.90      -99.90      -99.90    
       -99.90      -99.90      -99.90      -99.90      -99.90      -99.90      -99.90      -99.90      -99.90      -99.90    
  38   -99.90      -99.90      -99.90      -99.90      -99.90      -99.90      -99.90      -99.90      -99.90      -99.90    
       -99.90      -99.90      -99.90      -99.90      -99.90      -99.90      -99.90      -99.90      -99.90      -99.90    
       -99.90      -99.90      -99.90      -99.90      -99.90      -99.90      -99.90      -99.90      -99.90      -99.90    
       -99.90      -99.90      -99.90      -99.90      -99.90      -99.90      -99.90      -99.90      -99.90      -99.90    
  39   -99.90      -99.90      -99.90      -99.90      -99.90      -99.90      -99.90      -99.90      -99.90      -99.90    
       -99.90      -99.90      -99.90      -99.90      -99.90      -99.90      -99.90      -99.90      -99.90      -99.90    
       -99.90      -99.90      -99.90      -99.90      -99.90      -99.90      -99.90      -99.90      -99.90      -99.90    
       -99.90      -99.90      -99.90      -99.90      -99.90      -99.90      -99.90      -99.90      -99.90      -99.90    
  40   -99.90      -99.90      -99.90      -99.90      -99.90      -99.90      -99.90      -99.90      -99.90      -99.90    
       -99.90      -99.90      -99.90      -99.90      -99.90      -99.90      -99.90      -99.90      -99.90      -99.90    
       -99.90      -99.90      -99.90      -99.90      -99.90      -99.90      -99.90      -99.90      -99.90      -99.90    
       -99.90      -99.90      -99.90      -99.90      -99.90      -99.90      -99.90      -99.90      -99.90      -99.90    
1
              HEAD IN LAYER   9 AT END OF TIME STEP   1 IN STRESS PERIOD    3
  ---------------------------------------------------------------------------

            1           2           3           4           5           6           7           8           9          10
           11          12          13          14          15          16          17          18          19          20
           21          22          23          24          25          26          27          28          29          30
           31          32          33          34          35          36          37          38          39          40
 ........................................................................................................................
   1    46.42       44.79       40.62       37.46       34.95       32.99       31.38       30.05       29.00       28.16    
        27.48       26.94       26.52       26.19       25.93       25.74       25.59       25.47       25.35      -99.90    
       -99.90      -99.90      -99.90      -99.90      -99.90      -99.90      -99.90      -99.90      -99.90      -99.90    
       -99.90      -99.90      -99.90      -99.90      -99.90      -99.90      -99.90      -99.90      -99.90      -99.90    
   2    44.79       43.37       39.57       36.77       34.50       32.67       31.13       29.90       28.89       28.08    
        27.42       26.90       26.49       26.17       25.92       25.73       25.58       25.47       25.35      -99.90    
       -99.90      -99.90      -99.90      -99.90      -99.90      -99.90      -99.90      -99.90      -99.90      -99.90    
       -99.90      -99.90      -99.90      -99.90      -99.90      -99.90      -99.90      -99.90      -99.90      -99.90    
   3    40.62       39.57       37.56       35.51       33.69       32.11       30.76       29.62       28.69       27.93    
        27.31       26.82       26.43       26.13       25.89       25.71       25.57       25.46       25.35      -99.90    
       -99.90      -99.90      -99.90      -99.90      -99.90      -99.90      -99.90      -99.90      -99.90      -99.90    
       -99.90      -99.90      -99.90      -99.90      -99.90      -99.90      -99.90      -99.90      -99.90      -99.90    
   4    37.46       36.77       35.51       34.08       32.68       31.39       30.23       29.23       28.40       27.72    
        27.16       26.71       26.35       26.07       25.85       25.68       25.55       25.45       25.35      -99.90    
       -99.90      -99.90      -99.90      -99.90      -99.90      -99.90      -99.90      -99.90      -99.90      -99.90    
       -99.90      -99.90      -99.90      -99.90      -99.90      -99.90      -99.90      -99.90      -99.90      -99.90    
   5    34.95       34.50       33.69       32.68       31.61       30.57       29.62       28.79       28.07       27.47    
        26.98       26.57       26.25       26.00       25.80       25.65       25.53       25.44      -99.90      -99.90    
       -99.90      -99.90      -99.90      -99.90      -99.90      -99.90      -99.90      -99.90      -99.90      -99.90    
       -99.90      -99.90      -99.90      -99.90      -99.90      -99.90      -99.90      -99.90      -99.90      -99.90    
   6    32.99       32.67       32.11       31.39       30.57       29.75       29.00       28.31       27.71       27.20    
        26.78       26.43       26.14       25.92       25.74       25.60       25.50       25.38      -99.90      -99.90    
       -99.90      -99.90      -99.90      -99.90      -99.90      -99.90      -99.90      -99.90      -99.90      -99.90    
       -99.90      -99.90      -99.90      -99.90      -99.90      -99.90      -99.90      -99.90      -99.90      -99.90    
   7    31.38       31.13       30.76       30.23       29.62       29.00       28.40       27.85       27.36       26.93    
        26.57       26.27       26.03       25.84       25.68       25.56       25.47       25.37      -99.90      -99.90    
       -99.90      -99.90      -99.90      -99.90      -99.90      -99.90      -99.90      -99.90      -99.90      -99.90    
       -99.90      -99.90      -99.90      -99.90      -99.90      -99.90      -99.90      -99.90      -99.90      -99.90    
   8    30.05       29.90       29.62       29.23       28.79       28.31       27.85       27.41       27.01       26.67    
        26.37       26.12       25.92       25.75       25.62       25.52       25.44      -99.90      -99.90      -99.90    
       -99.90      -99.90      -99.90      -99.90      -99.90      -99.90      -99.90      -99.90      -99.90      -99.90    
       -99.90      -99.90      -99.90      -99.90      -99.90      -99.90      -99.90      -99.90      -99.90      -99.90    
   9    29.00       28.89       28.69       28.40       28.07       27.71       27.36       27.01       26.70       26.42    
        26.18       25.98       25.81       25.68       25.57       25.48       25.39      -99.90      -99.90      -99.90    
       -99.90      -99.90      -99.90      -99.90      -99.90      -99.90      -99.90      -99.90      -99.90      -99.90    
       -99.90      -99.90      -99.90      -99.90      -99.90      -99.90      -99.90      -99.90      -99.90      -99.90    
  10    28.16       28.08       27.93       27.72       27.47       27.20       26.93       26.67       26.42       26.20    
        26.01       25.85       25.71       25.60       25.52       25.45      -99.90      -99.90      -99.90      -99.90    
       -99.90      -99.90      -99.90      -99.90      -99.90      -99.90      -99.90      -99.90      -99.90      -99.90    
       -99.90      -99.90      -99.90      -99.90      -99.90      -99.90      -99.90      -99.90      -99.90      -99.90    
  11    27.48       27.42       27.31       27.16       26.98       26.78       26.57       26.37       26.18       26.01    
        25.86       25.73       25.62       25.53       25.47      -99.90      -99.90      -99.90      -99.90      -99.90    
       -99.90      -99.90      -99.90      -99.90      -99.90      -99.90      -99.90      -99.90      -99.90      -99.90    
       -99.90      -99.90      -99.90      -99.90      -99.90      -99.90      -99.90      -99.90      -99.90      -99.90    
  12    26.94       26.90       26.82       26.71       26.57       26.43       26.27       26.12       25.98       25.85    
        25.73       25.63       25.54       25.47       25.39      -99.90      -99.90      -99.90      -99.90      -99.90    
       -99.90      -99.90      -99.90      -99.90      -99.90      -99.90      -99.90      -99.90      -99.90      -99.90    
       -99.90      -99.90      -99.90      -99.90      -99.90      -99.90      -99.90      -99.90      -99.90      -99.90    
  13    26.52       26.49       26.43       26.35       26.25       26.14       26.03       25.92       25.81       25.71    
        25.62       25.54       25.47       25.39      -99.90      -99.90      -99.90      -99.90      -99.90      -99.90    
       -99.90      -99.90      -99.90      -99.90      -99.90      -99.90      -99.90      -99.90      -99.90      -99.90    
       -99.90      -99.90      -99.90      -99.90      -99.90      -99.90      -99.90      -99.90      -99.90      -99.90    
  14    26.19       26.17       26.13       26.07       26.00       25.92       25.84       25.75       25.68       25.60    
        25.53       25.47       25.39      -99.90      -99.90      -99.90      -99.90      -99.90      -99.90      -99.90    
       -99.90      -99.90      -99.90      -99.90      -99.90      -99.90      -99.90      -99.90      -99.90      -99.90    
       -99.90      -99.90      -99.90      -99.90      -99.90      -99.90      -99.90      -99.90      -99.90      -99.90    
  15    25.93       25.92       25.89       25.85       25.80       25.74       25.68       25.62       25.57       25.52    
        25.47       25.39      -99.90      -99.90      -99.90      -99.90      -99.90      -99.90      -99.90      -99.90    
       -99.90      -99.90      -99.90      -99.90      -99.90      -99.90      -99.90      -99.90      -99.90      -99.90    
       -99.90      -99.90      -99.90      -99.90      -99.90      -99.90      -99.90      -99.90      -99.90      -99.90    
  16    25.74       25.73       25.71       25.68       25.65       25.60       25.56       25.52       25.48       25.45    
       -99.90      -99.90      -99.90      -99.90      -99.90      -99.90      -99.90      -99.90      -99.90      -99.90    
       -99.90      -99.90      -99.90      -99.90      -99.90      -99.90      -99.90      -99.90      -99.90      -99.90    
       -99.90      -99.90      -99.90      -99.90      -99.90      -99.90      -99.90      -99.90      -99.90      -99.90    
  17    25.59       25.58       25.57       25.55       25.53       25.50       25.47       25.44       25.39      -99.90    
       -99.90      -99.90      -99.90      -99.90      -99.90      -99.90      -99.90      -99.90      -99.90      -99.90    
       -99.90      -99.90      -99.90      -99.90      -99.90      -99.90      -99.90      -99.90      -99.90      -99.90    
       -99.90      -99.90      -99.90      -99.90      -99.90      -99.90      -99.90      -99.90      -99.90      -99.90    
  18    25.47       25.47       25.46       25.45       25.44       25.38       25.37      -99.90      -99.90      -99.90    
       -99.90      -99.90      -99.90      -99.90      -99.90      -99.90      -99.90      -99.90      -99.90      -99.90    
       -99.90      -99.90      -99.90      -99.90      -99.90      -99.90      -99.90      -99.90      -99.90      -99.90    
       -99.90      -99.90      -99.90      -99.90      -99.90      -99.90      -99.90      -99.90      -99.90      -99.90    
  19    25.35       25.35       25.35       25.35      -99.90      -99.90      -99.90      -99.90      -99.90      -99.90    
       -99.90      -99.90      -99.90      -99.90      -99.90      -99.90      -99.90      -99.90      -99.90      -99.90    
       -99.90      -99.90      -99.90      -99.90      -99.90      -99.90      -99.90      -99.90      -99.90      -99.90    
       -99.90      -99.90      -99.90      -99.90      -99.90      -99.90      -99.90      -99.90      -99.90      -99.90    
  20   -99.90      -99.90      -99.90      -99.90      -99.90      -99.90      -99.90      -99.90      -99.90      -99.90    
       -99.90      -99.90      -99.90      -99.90      -99.90      -99.90      -99.90      -99.90      -99.90      -99.90    
       -99.90      -99.90      -99.90      -99.90      -99.90      -99.90      -99.90      -99.90      -99.90      -99.90    
       -99.90      -99.90      -99.90      -99.90      -99.90      -99.90      -99.90      -99.90      -99.90      -99.90    
  21   -99.90      -99.90      -99.90      -99.90      -99.90      -99.90      -99.90      -99.90      -99.90      -99.90    
       -99.90      -99.90      -99.90      -99.90      -99.90      -99.90      -99.90      -99.90      -99.90      -99.90    
       -99.90      -99.90      -99.90      -99.90      -99.90      -99.90      -99.90      -99.90      -99.90      -99.90    
       -99.90      -99.90      -99.90      -99.90      -99.90      -99.90      -99.90      -99.90      -99.90      -99.90    
  22   -99.90      -99.90      -99.90      -99.90      -99.90      -99.90      -99.90      -99.90      -99.90      -99.90    
       -99.90      -99.90      -99.90      -99.90      -99.90      -99.90      -99.90      -99.90      -99.90      -99.90    
       -99.90      -99.90      -99.90      -99.90      -99.90      -99.90      -99.90      -99.90      -99.90      -99.90    
       -99.90      -99.90      -99.90      -99.90      -99.90      -99.90      -99.90      -99.90      -99.90      -99.90    
  23   -99.90      -99.90      -99.90      -99.90      -99.90      -99.90      -99.90      -99.90      -99.90      -99.90    
       -99.90      -99.90      -99.90      -99.90      -99.90      -99.90      -99.90      -99.90      -99.90      -99.90    
       -99.90      -99.90      -99.90      -99.90      -99.90      -99.90      -99.90      -99.90      -99.90      -99.90    
       -99.90      -99.90      -99.90      -99.90      -99.90      -99.90      -99.90      -99.90      -99.90      -99.90    
  24   -99.90      -99.90      -99.90      -99.90      -99.90      -99.90      -99.90      -99.90      -99.90      -99.90    
       -99.90      -99.90      -99.90      -99.90      -99.90      -99.90      -99.90      -99.90      -99.90      -99.90    
       -99.90      -99.90      -99.90      -99.90      -99.90      -99.90      -99.90      -99.90      -99.90      -99.90    
       -99.90      -99.90      -99.90      -99.90      -99.90      -99.90      -99.90      -99.90      -99.90      -99.90    
  25   -99.90      -99.90      -99.90      -99.90      -99.90      -99.90      -99.90      -99.90      -99.90      -99.90    
       -99.90      -99.90      -99.90      -99.90      -99.90      -99.90      -99.90      -99.90      -99.90      -99.90    
       -99.90      -99.90      -99.90      -99.90      -99.90      -99.90      -99.90      -99.90      -99.90      -99.90    
       -99.90      -99.90      -99.90      -99.90      -99.90      -99.90      -99.90      -99.90      -99.90      -99.90    
  26   -99.90      -99.90      -99.90      -99.90      -99.90      -99.90      -99.90      -99.90      -99.90      -99.90    
       -99.90      -99.90      -99.90      -99.90      -99.90      -99.90      -99.90      -99.90      -99.90      -99.90    
       -99.90      -99.90      -99.90      -99.90      -99.90      -99.90      -99.90      -99.90      -99.90      -99.90    
       -99.90      -99.90      -99.90      -99.90      -99.90      -99.90      -99.90      -99.90      -99.90      -99.90    
  27   -99.90      -99.90      -99.90      -99.90      -99.90      -99.90      -99.90      -99.90      -99.90      -99.90    
       -99.90      -99.90      -99.90      -99.90      -99.90      -99.90      -99.90      -99.90      -99.90      -99.90    
       -99.90      -99.90      -99.90      -99.90      -99.90      -99.90      -99.90      -99.90      -99.90      -99.90    
       -99.90      -99.90      -99.90      -99.90      -99.90      -99.90      -99.90      -99.90      -99.90      -99.90    
  28   -99.90      -99.90      -99.90      -99.90      -99.90      -99.90      -99.90      -99.90      -99.90      -99.90    
       -99.90      -99.90      -99.90      -99.90      -99.90      -99.90      -99.90      -99.90      -99.90      -99.90    
       -99.90      -99.90      -99.90      -99.90      -99.90      -99.90      -99.90      -99.90      -99.90      -99.90    
       -99.90      -99.90      -99.90      -99.90      -99.90      -99.90      -99.90      -99.90      -99.90      -99.90    
  29   -99.90      -99.90      -99.90      -99.90      -99.90      -99.90      -99.90      -99.90      -99.90      -99.90    
       -99.90      -99.90      -99.90      -99.90      -99.90      -99.90      -99.90      -99.90      -99.90      -99.90    
       -99.90      -99.90      -99.90      -99.90      -99.90      -99.90      -99.90      -99.90      -99.90      -99.90    
       -99.90      -99.90      -99.90      -99.90      -99.90      -99.90      -99.90      -99.90      -99.90      -99.90    
  30   -99.90      -99.90      -99.90      -99.90      -99.90      -99.90      -99.90      -99.90      -99.90      -99.90    
       -99.90      -99.90      -99.90      -99.90      -99.90      -99.90      -99.90      -99.90      -99.90      -99.90    
       -99.90      -99.90      -99.90      -99.90      -99.90      -99.90      -99.90      -99.90      -99.90      -99.90    
       -99.90      -99.90      -99.90      -99.90      -99.90      -99.90      -99.90      -99.90      -99.90      -99.90    
  31   -99.90      -99.90      -99.90      -99.90      -99.90      -99.90      -99.90      -99.90      -99.90      -99.90    
       -99.90      -99.90      -99.90      -99.90      -99.90      -99.90      -99.90      -99.90      -99.90      -99.90    
       -99.90      -99.90      -99.90      -99.90      -99.90      -99.90      -99.90      -99.90      -99.90      -99.90    
       -99.90      -99.90      -99.90      -99.90      -99.90      -99.90      -99.90      -99.90      -99.90      -99.90    
  32   -99.90      -99.90      -99.90      -99.90      -99.90      -99.90      -99.90      -99.90      -99.90      -99.90    
       -99.90      -99.90      -99.90      -99.90      -99.90      -99.90      -99.90      -99.90      -99.90      -99.90    
       -99.90      -99.90      -99.90      -99.90      -99.90      -99.90      -99.90      -99.90      -99.90      -99.90    
       -99.90      -99.90      -99.90      -99.90      -99.90      -99.90      -99.90      -99.90      -99.90      -99.90    
  33   -99.90      -99.90      -99.90      -99.90      -99.90      -99.90      -99.90      -99.90      -99.90      -99.90    
       -99.90      -99.90      -99.90      -99.90      -99.90      -99.90      -99.90      -99.90      -99.90      -99.90    
       -99.90      -99.90      -99.90      -99.90      -99.90      -99.90      -99.90      -99.90      -99.90      -99.90    
       -99.90      -99.90      -99.90      -99.90      -99.90      -99.90      -99.90      -99.90      -99.90      -99.90    
  34   -99.90      -99.90      -99.90      -99.90      -99.90      -99.90      -99.90      -99.90      -99.90      -99.90    
       -99.90      -99.90      -99.90      -99.90      -99.90      -99.90      -99.90      -99.90      -99.90      -99.90    
       -99.90      -99.90      -99.90      -99.90      -99.90      -99.90      -99.90      -99.90      -99.90      -99.90    
       -99.90      -99.90      -99.90      -99.90      -99.90      -99.90      -99.90      -99.90      -99.90      -99.90    
  35   -99.90      -99.90      -99.90      -99.90      -99.90      -99.90      -99.90      -99.90      -99.90      -99.90    
       -99.90      -99.90      -99.90      -99.90      -99.90      -99.90      -99.90      -99.90      -99.90      -99.90    
       -99.90      -99.90      -99.90      -99.90      -99.90      -99.90      -99.90      -99.90      -99.90      -99.90    
       -99.90      -99.90      -99.90      -99.90      -99.90      -99.90      -99.90      -99.90      -99.90      -99.90    
  36   -99.90      -99.90      -99.90      -99.90      -99.90      -99.90      -99.90      -99.90      -99.90      -99.90    
       -99.90      -99.90      -99.90      -99.90      -99.90      -99.90      -99.90      -99.90      -99.90      -99.90    
       -99.90      -99.90      -99.90      -99.90      -99.90      -99.90      -99.90      -99.90      -99.90      -99.90    
       -99.90      -99.90      -99.90      -99.90      -99.90      -99.90      -99.90      -99.90      -99.90      -99.90    
  37   -99.90      -99.90      -99.90      -99.90      -99.90      -99.90      -99.90      -99.90      -99.90      -99.90    
       -99.90      -99.90      -99.90      -99.90      -99.90      -99.90      -99.90      -99.90      -99.90      -99.90    
       -99.90      -99.90      -99.90      -99.90      -99.90      -99.90      -99.90      -99.90      -99.90      -99.90    
       -99.90      -99.90      -99.90      -99.90      -99.90      -99.90      -99.90      -99.90      -99.90      -99.90    
  38   -99.90      -99.90      -99.90      -99.90      -99.90      -99.90      -99.90      -99.90      -99.90      -99.90    
       -99.90      -99.90      -99.90      -99.90      -99.90      -99.90      -99.90      -99.90      -99.90      -99.90    
       -99.90      -99.90      -99.90      -99.90      -99.90      -99.90      -99.90      -99.90      -99.90      -99.90    
       -99.90      -99.90      -99.90      -99.90      -99.90      -99.90      -99.90      -99.90      -99.90      -99.90    
  39   -99.90      -99.90      -99.90      -99.90      -99.90      -99.90      -99.90      -99.90      -99.90      -99.90    
       -99.90      -99.90      -99.90      -99.90      -99.90      -99.90      -99.90      -99.90      -99.90      -99.90    
       -99.90      -99.90      -99.90      -99.90      -99.90      -99.90      -99.90      -99.90      -99.90      -99.90    
       -99.90      -99.90      -99.90      -99.90      -99.90      -99.90      -99.90      -99.90      -99.90      -99.90    
  40   -99.90      -99.90      -99.90      -99.90      -99.90      -99.90      -99.90      -99.90      -99.90      -99.90    
       -99.90      -99.90      -99.90      -99.90      -99.90      -99.90      -99.90      -99.90      -99.90      -99.90    
       -99.90      -99.90      -99.90      -99.90      -99.90      -99.90      -99.90      -99.90      -99.90      -99.90    
       -99.90      -99.90      -99.90      -99.90      -99.90      -99.90      -99.90      -99.90      -99.90      -99.90    
1
              HEAD IN LAYER  10 AT END OF TIME STEP   1 IN STRESS PERIOD    3
  ---------------------------------------------------------------------------

            1           2           3           4           5           6           7           8           9          10
           11          12          13          14          15          16          17          18          19          20
           21          22          23          24          25          26          27          28          29          30
           31          32          33          34          35          36          37          38          39          40
 ........................................................................................................................
   1    45.91       44.29       40.51       37.44       34.95       32.99       31.39       30.07       29.02       28.17    
        27.49       26.95       26.53       26.20       25.94       25.75       25.59       25.47       25.36       25.35    
        25.33       25.31       25.29       25.27       25.25       25.23       25.21       25.19       25.18       25.16    
        25.14       25.12       25.11       25.09       25.08       25.06       25.05       25.03       25.02       25.00    
   2    44.29       42.87       39.48       36.75       34.50       32.68       31.15       29.91       28.91       28.09    
        27.43       26.91       26.50       26.18       25.93       25.73       25.59       25.47       25.36       25.35    
        25.33       25.31       25.29       25.27       25.25       25.23       25.21       25.19       25.18       25.16    
        25.14       25.12       25.11       25.09       25.08       25.06       25.05       25.03       25.02       25.00    
   3    40.51       39.48       37.53       35.51       33.69       32.12       30.77       29.63       28.70       27.94    
        27.32       26.83       26.44       26.13       25.90       25.71       25.57       25.46       25.36       25.35    
        25.33       25.31       25.29       25.27       25.25       25.23       25.21       25.19       25.17       25.16    
        25.14       25.12       25.11       25.09       25.08       25.06       25.05       25.03       25.01       25.00    
   4    37.44       36.75       35.51       34.09       32.68       31.39       30.24       29.25       28.42       27.73    
        27.17       26.72       26.36       26.08       25.86       25.69       25.55       25.45       25.36       25.35    
        25.33       25.31       25.29       25.27       25.25       25.23       25.21       25.19       25.17       25.16    
        25.14       25.12       25.11       25.09       25.08       25.06       25.04       25.03       25.01       25.00    
   5    34.95       34.50       33.69       32.68       31.62       30.58       29.63       28.80       28.08       27.48    
        26.99       26.58       26.26       26.01       25.81       25.65       25.53       25.44       25.39       25.36    
        25.33       25.31       25.29       25.27       25.25       25.23       25.21       25.19       25.17       25.15    
        25.14       25.12       25.11       25.09       25.07       25.06       25.04       25.03       25.01       25.00    
   6    32.99       32.68       32.12       31.39       30.58       29.77       29.01       28.33       27.73       27.22    
        26.79       26.44       26.15       25.93       25.75       25.61       25.50       25.40       25.38       25.36    
        25.33       25.31       25.28       25.26       25.24       25.22       25.21       25.19       25.17       25.15    
        25.14       25.12       25.10       25.09       25.07       25.06       25.04       25.03       25.01       25.00    
   7    31.39       31.15       30.77       30.24       29.63       29.01       28.41       27.86       27.37       26.94    
        26.58       26.28       26.04       25.84       25.69       25.57       25.47       25.38       25.37       25.35    
        25.33       25.30       25.28       25.26       25.24       25.22       25.20       25.18       25.17       25.15    
        25.13       25.12       25.10       25.09       25.07       25.06       25.04       25.03       25.01       25.00    
   8    30.07       29.91       29.63       29.25       28.80       28.33       27.86       27.42       27.03       26.68    
        26.38       26.13       25.93       25.76       25.63       25.53       25.45       25.40       25.37       25.35    
        25.32       25.30       25.28       25.26       25.24       25.22       25.20       25.18       25.17       25.15    
        25.13       25.12       25.10       25.09       25.07       25.06       25.04       25.03       25.01       25.00    
   9    29.02       28.91       28.70       28.42       28.08       27.73       27.37       27.03       26.71       26.43    
        26.19       25.99       25.82       25.68       25.57       25.49       25.40       25.39       25.36       25.34    
        25.32       25.29       25.27       25.25       25.23       25.21       25.20       25.18       25.16       25.15    
        25.13       25.11       25.10       25.08       25.07       25.06       25.04       25.03       25.01       25.00    
  10    28.17       28.09       27.94       27.73       27.48       27.22       26.94       26.68       26.43       26.21    
        26.02       25.85       25.72       25.61       25.52       25.46       25.41       25.38       25.36       25.33    
        25.31       25.29       25.27       25.25       25.23       25.21       25.19       25.18       25.16       25.14    
        25.13       25.11       25.10       25.08       25.07       25.06       25.04       25.03       25.01       25.00    
  11    27.49       27.43       27.32       27.17       26.99       26.79       26.58       26.38       26.19       26.02    
        25.87       25.74       25.63       25.54       25.47       25.43       25.40       25.37       25.35       25.32    
        25.30       25.28       25.26       25.24       25.22       25.20       25.19       25.17       25.16       25.14    
        25.12       25.11       25.10       25.08       25.07       25.05       25.04       25.03       25.01       25.00    
  12    26.95       26.91       26.83       26.72       26.58       26.44       26.28       26.13       25.99       25.85    
        25.74       25.63       25.54       25.47       25.40       25.40       25.38       25.36       25.33       25.31    
        25.29       25.27       25.25       25.23       25.22       25.20       25.18       25.17       25.15       25.14    
        25.12       25.11       25.09       25.08       25.07       25.05       25.04       25.03       25.01       25.00    
  13    26.53       26.50       26.44       26.36       26.26       26.15       26.04       25.93       25.82       25.72    
        25.63       25.54       25.47       25.40       25.40       25.38       25.36       25.34       25.32       25.30    
        25.28       25.26       25.24       25.23       25.21       25.19       25.18       25.16       25.15       25.13    
        25.12       25.10       25.09       25.08       25.06       25.05       25.04       25.03       25.01       25.00    
  14    26.20       26.18       26.13       26.08       26.01       25.93       25.84       25.76       25.68       25.61    
        25.54       25.47       25.40       25.40       25.38       25.36       25.35       25.33       25.31       25.29    
        25.27       25.25       25.23       25.22       25.20       25.19       25.17       25.16       25.14       25.13    
        25.11       25.10       25.09       25.07       25.06       25.05       25.04       25.02       25.01       25.00    
  15    25.94       25.93       25.90       25.86       25.81       25.75       25.69       25.63       25.57       25.52    
        25.47       25.40       25.40       25.38       25.36       25.35       25.33       25.31       25.29       25.28    
        25.26       25.24       25.23       25.21       25.19       25.18       25.17       25.15       25.14       25.12    
        25.11       25.10       25.09       25.07       25.06       25.05       25.04       25.02       25.01       25.00    
  16    25.75       25.73       25.71       25.69       25.65       25.61       25.57       25.53       25.49       25.46    
        25.43       25.40       25.38       25.36       25.35       25.33       25.31       25.30       25.28       25.26    
        25.25       25.23       25.22       25.20       25.19       25.17       25.16       25.15       25.13       25.12    
        25.11       25.09       25.08       25.07       25.06       25.05       25.03       25.02       25.01       25.00    
  17    25.59       25.59       25.57       25.55       25.53       25.50       25.47       25.45       25.40       25.41    
        25.40       25.38       25.36       25.35       25.33       25.31       25.30       25.28       25.27       25.25    
        25.24       25.22       25.21       25.19       25.18       25.17       25.15       25.14       25.13       25.11    
        25.10       25.09       25.08       25.07       25.06       25.04       25.03       25.02       25.01       25.00    
  18    25.47       25.47       25.46       25.45       25.44       25.40       25.38       25.40       25.39       25.38    
        25.37       25.36       25.34       25.33       25.31       25.30       25.28       25.27       25.25       25.24    
        25.23       25.21       25.20       25.18       25.17       25.16       25.15       25.13       25.12       25.11    
        25.10       25.09       25.08       25.06       25.05       25.04       25.03       25.02       25.01       25.00    
  19    25.36       25.36       25.36       25.36       25.39       25.38       25.37       25.37       25.36       25.36    
        25.35       25.33       25.32       25.31       25.29       25.28       25.27       25.25       25.24       25.23    
        25.21       25.20       25.19       25.18       25.16       25.15       25.14       25.13       25.12       25.11    
        25.09       25.08       25.07       25.06       25.05       25.04       25.03       25.02       25.01       25.00    
  20    25.35       25.35       25.35       25.35       25.36       25.36       25.35       25.35       25.34       25.33    
        25.32       25.31       25.30       25.29       25.28       25.26       25.25       25.24       25.23       25.21    
        25.20       25.19       25.18       25.17       25.16       25.14       25.13       25.12       25.11       25.10    
        25.09       25.08       25.07       25.06       25.05       25.04       25.03       25.02       25.01       25.00    
  21    25.33       25.33       25.33       25.33       25.33       25.33       25.33       25.32       25.32       25.31    
        25.30       25.29       25.28       25.27       25.26       25.25       25.24       25.23       25.21       25.20    
        25.19       25.18       25.17       25.16       25.15       25.14       25.13       25.12       25.11       25.10    
        25.09       25.08       25.07       25.06       25.05       25.04       25.03       25.02       25.01       25.00    
  22    25.31       25.31       25.31       25.31       25.31       25.31       25.30       25.30       25.29       25.29    
        25.28       25.27       25.26       25.25       25.24       25.23       25.22       25.21       25.20       25.19    
        25.18       25.17       25.16       25.15       25.14       25.13       25.12       25.11       25.10       25.09    
        25.08       25.07       25.06       25.05       25.04       25.04       25.03       25.02       25.01       25.00    
  23    25.29       25.29       25.29       25.29       25.29       25.28       25.28       25.28       25.27       25.27    
        25.26       25.25       25.24       25.23       25.23       25.22       25.21       25.20       25.19       25.18    
        25.17       25.16       25.15       25.14       25.13       25.12       25.11       25.10       25.09       25.09    
        25.08       25.07       25.06       25.05       25.04       25.03       25.03       25.02       25.01       25.00    
  24    25.27       25.27       25.27       25.27       25.27       25.26       25.26       25.26       25.25       25.25    
        25.24       25.23       25.23       25.22       25.21       25.20       25.19       25.18       25.18       25.17    
        25.16       25.15       25.14       25.13       25.12       25.11       25.11       25.10       25.09       25.08    
        25.07       25.06       25.06       25.05       25.04       25.03       25.02       25.02       25.01       25.00    
  25    25.25       25.25       25.25       25.25       25.25       25.24       25.24       25.24       25.23       25.23    
        25.22       25.22       25.21       25.20       25.19       25.19       25.18       25.17       25.16       25.16    
        25.15       25.14       25.13       25.12       25.11       25.11       25.10       25.09       25.08       25.07    
        25.07       25.06       25.05       25.04       25.04       25.03       25.02       25.01       25.01       25.00    
  26    25.23       25.23       25.23       25.23       25.23       25.22       25.22       25.22       25.21       25.21    
        25.20       25.20       25.19       25.19       25.18       25.17       25.17       25.16       25.15       25.14    
        25.14       25.13       25.12       25.11       25.11       25.10       25.09       25.08       25.08       25.07    
        25.06       25.06       25.05       25.04       25.03       25.03       25.02       25.01       25.01       25.00    
  27    25.21       25.21       25.21       25.21       25.21       25.21       25.20       25.20       25.20       25.19    
        25.19       25.18       25.18       25.17       25.17       25.16       25.15       25.15       25.14       25.13    
        25.13       25.12       25.11       25.11       25.10       25.09       25.08       25.08       25.07       25.06    
        25.06       25.05       25.04       25.04       25.03       25.03       25.02       25.01       25.01       25.00    
  28    25.19       25.19       25.19       25.19       25.19       25.19       25.18       25.18       25.18       25.18    
        25.17       25.17       25.16       25.16       25.15       25.15       25.14       25.13       25.13       25.12    
        25.12       25.11       25.10       25.10       25.09       25.08       25.08       25.07       25.07       25.06    
        25.05       25.05       25.04       25.04       25.03       25.02       25.02       25.01       25.01       25.00    
  29    25.18       25.18       25.17       25.17       25.17       25.17       25.17       25.17       25.16       25.16    
        25.16       25.15       25.15       25.14       25.14       25.13       25.13       25.12       25.12       25.11    
        25.11       25.10       25.09       25.09       25.08       25.08       25.07       25.07       25.06       25.05    
        25.05       25.04       25.04       25.03       25.03       25.02       25.02       25.01       25.01       25.00    
  30    25.16       25.16       25.16       25.16       25.15       25.15       25.15       25.15       25.15       25.14    
        25.14       25.14       25.13       25.13       25.12       25.12       25.11       25.11       25.11       25.10    
        25.10       25.09       25.09       25.08       25.07       25.07       25.06       25.06       25.05       25.05    
        25.04       25.04       25.03       25.03       25.02       25.02       25.01       25.01       25.00       25.00    
  31    25.14       25.14       25.14       25.14       25.14       25.14       25.13       25.13       25.13       25.13    
        25.12       25.12       25.12       25.11       25.11       25.11       25.10       25.10       25.09       25.09    
        25.09       25.08       25.08       25.07       25.07       25.06       25.06       25.05       25.05       25.04    
        25.04       25.04       25.03       25.03       25.02       25.02       25.01       25.01       25.00       25.00    
  32    25.12       25.12       25.12       25.12       25.12       25.12       25.12       25.12       25.11       25.11    
        25.11       25.11       25.10       25.10       25.10       25.09       25.09       25.09       25.08       25.08    
        25.08       25.07       25.07       25.06       25.06       25.06       25.05       25.05       25.04       25.04    
        25.04       25.03       25.03       25.02       25.02       25.02       25.01       25.01       25.00       25.00    
  33    25.11       25.11       25.11       25.11       25.11       25.10       25.10       25.10       25.10       25.10    
        25.10       25.09       25.09       25.09       25.09       25.08       25.08       25.08       25.07       25.07    
        25.07       25.06       25.06       25.06       25.05       25.05       25.04       25.04       25.04       25.03    
        25.03       25.03       25.02       25.02       25.02       25.01       25.01       25.01       25.00       25.00    
  34    25.09       25.09       25.09       25.09       25.09       25.09       25.09       25.09       25.08       25.08    
        25.08       25.08       25.08       25.07       25.07       25.07       25.07       25.06       25.06       25.06    
        25.06       25.05       25.05       25.05       25.04       25.04       25.04       25.04       25.03       25.03    
        25.03       25.02       25.02       25.02       25.01       25.01       25.01       25.01       25.00       25.00    
  35    25.08       25.08       25.08       25.08       25.07       25.07       25.07       25.07       25.07       25.07    
        25.07       25.07       25.06       25.06       25.06       25.06       25.06       25.05       25.05       25.05    
        25.05       25.04       25.04       25.04       25.04       25.03       25.03       25.03       25.03       25.02    
        25.02       25.02       25.02       25.01       25.01       25.01       25.01       25.00       25.00       25.00    
  36    25.06       25.06       25.06       25.06       25.06       25.06       25.06       25.06       25.06       25.06    
        25.05       25.05       25.05       25.05       25.05       25.05       25.04       25.04       25.04       25.04    
        25.04       25.04       25.03       25.03       25.03       25.03       25.03       25.02       25.02       25.02    
        25.02       25.02       25.01       25.01       25.01       25.01       25.01       25.00       25.00       25.00    
  37    25.05       25.05       25.05       25.04       25.04       25.04       25.04       25.04       25.04       25.04    
        25.04       25.04       25.04       25.04       25.04       25.03       25.03       25.03       25.03       25.03    
        25.03       25.03       25.03       25.02       25.02       25.02       25.02       25.02       25.02       25.01    
        25.01       25.01       25.01       25.01       25.01       25.01       25.00       25.00       25.00       25.00    
  38    25.03       25.03       25.03       25.03       25.03       25.03       25.03       25.03       25.03       25.03    
        25.03       25.03       25.03       25.02       25.02       25.02       25.02       25.02       25.02       25.02    
        25.02       25.02       25.02       25.02       25.01       25.01       25.01       25.01       25.01       25.01    
        25.01       25.01       25.01       25.01       25.00       25.00       25.00       25.00       25.00       25.00    
  39    25.02       25.02       25.01       25.01       25.01       25.01       25.01       25.01       25.01       25.01    
        25.01       25.01       25.01       25.01       25.01       25.01       25.01       25.01       25.01       25.01    
        25.01       25.01       25.01       25.01       25.01       25.01       25.01       25.01       25.01       25.00    
        25.00       25.00       25.00       25.00       25.00       25.00       25.00       25.00       25.00       25.00    
  40    25.00       25.00       25.00       25.00       25.00       25.00       25.00       25.00       25.00       25.00    
        25.00       25.00       25.00       25.00       25.00       25.00       25.00       25.00       25.00       25.00    
        25.00       25.00       25.00       25.00       25.00       25.00       25.00       25.00       25.00       25.00    
        25.00       25.00       25.00       25.00       25.00       25.00       25.00       25.00       25.00       25.00    
1
              HEAD IN LAYER  11 AT END OF TIME STEP   1 IN STRESS PERIOD    3
  ---------------------------------------------------------------------------

            1           2           3           4           5           6           7           8           9          10
           11          12          13          14          15          16          17          18          19          20
           21          22          23          24          25          26          27          28          29          30
           31          32          33          34          35          36          37          38          39          40
 ........................................................................................................................
   1    45.51       43.90       40.42       37.41       34.96       33.00       31.40       30.08       29.03       28.18    
        27.50       26.96       26.53       26.20       25.95       25.75       25.60       25.48       25.37       25.35    
        25.33       25.31       25.29       25.27       25.25       25.23       25.21       25.19       25.18       25.16    
        25.14       25.12       25.11       25.09       25.08       25.06       25.05       25.03       25.02       25.00    
   2    43.90       42.49       39.40       36.73       34.51       32.69       31.17       29.93       28.92       28.10    
        27.44       26.92       26.50       26.18       25.93       25.74       25.59       25.47       25.37       25.35    
        25.33       25.31       25.29       25.27       25.25       25.23       25.21       25.19       25.18       25.16    
        25.14       25.12       25.11       25.09       25.08       25.06       25.05       25.03       25.02       25.00    
   3    40.42       39.40       37.50       35.51       33.70       32.13       30.78       29.64       28.71       27.95    
        27.33       26.84       26.45       26.14       25.90       25.72       25.58       25.47       25.37       25.35    
        25.33       25.31       25.29       25.27       25.25       25.23       25.21       25.19       25.17       25.16    
        25.14       25.12       25.11       25.09       25.08       25.06       25.05       25.03       25.01       25.00    
   4    37.41       36.73       35.51       34.09       32.69       31.40       30.25       29.26       28.43       27.74    
        27.18       26.73       26.37       26.08       25.86       25.69       25.56       25.46       25.37       25.35    
        25.33       25.31       25.29       25.27       25.25       25.23       25.21       25.19       25.17       25.16    
        25.14       25.12       25.11       25.09       25.08       25.06       25.04       25.03       25.01       25.00    
   5    34.96       34.51       33.70       32.69       31.63       30.59       29.64       28.81       28.10       27.49    
        27.00       26.59       26.27       26.01       25.81       25.65       25.53       25.44       25.39       25.36    
        25.33       25.31       25.29       25.27       25.25       25.23       25.21       25.19       25.17       25.15    
        25.14       25.12       25.11       25.09       25.07       25.06       25.04       25.03       25.01       25.00    
   6    33.00       32.69       32.13       31.40       30.59       29.78       29.02       28.34       27.74       27.22    
        26.80       26.44       26.16       25.93       25.75       25.61       25.50       25.41       25.38       25.36    
        25.33       25.31       25.28       25.26       25.24       25.22       25.21       25.19       25.17       25.15    
        25.14       25.12       25.10       25.09       25.07       25.06       25.04       25.03       25.01       25.00    
   7    31.40       31.17       30.78       30.25       29.64       29.02       28.42       27.87       27.38       26.95    
        26.59       26.29       26.04       25.85       25.69       25.57       25.47       25.39       25.38       25.35    
        25.33       25.30       25.28       25.26       25.24       25.22       25.20       25.18       25.17       25.15    
        25.13       25.12       25.10       25.09       25.07       25.06       25.04       25.03       25.01       25.00    
   8    30.08       29.93       29.64       29.26       28.81       28.34       27.87       27.43       27.04       26.69    
        26.39       26.14       25.93       25.76       25.63       25.53       25.45       25.40       25.37       25.35    
        25.32       25.30       25.28       25.26       25.24       25.22       25.20       25.18       25.17       25.15    
        25.13       25.12       25.10       25.09       25.07       25.06       25.04       25.03       25.01       25.00    
   9    29.03       28.92       28.71       28.43       28.10       27.74       27.38       27.04       26.72       26.44    
        26.20       25.99       25.82       25.68       25.58       25.49       25.41       25.39       25.37       25.34    
        25.32       25.29       25.27       25.25       25.23       25.21       25.20       25.18       25.16       25.15    
        25.13       25.11       25.10       25.08       25.07       25.06       25.04       25.03       25.01       25.00    
  10    28.18       28.10       27.95       27.74       27.49       27.22       26.95       26.69       26.44       26.22    
        26.03       25.86       25.72       25.61       25.52       25.46       25.41       25.38       25.36       25.33    
        25.31       25.29       25.27       25.25       25.23       25.21       25.19       25.18       25.16       25.14    
        25.13       25.11       25.10       25.08       25.07       25.06       25.04       25.03       25.01       25.00    
  11    27.50       27.44       27.33       27.18       27.00       26.80       26.59       26.39       26.20       26.03    
        25.87       25.74       25.63       25.54       25.47       25.43       25.40       25.37       25.35       25.32    
        25.30       25.28       25.26       25.24       25.22       25.20       25.19       25.17       25.16       25.14    
        25.12       25.11       25.10       25.08       25.07       25.05       25.04       25.03       25.01       25.00    
  12    26.96       26.92       26.84       26.73       26.59       26.44       26.29       26.14       25.99       25.86    
        25.74       25.64       25.55       25.47       25.41       25.40       25.38       25.36       25.33       25.31    
        25.29       25.27       25.25       25.23       25.22       25.20       25.18       25.17       25.15       25.14    
        25.12       25.11       25.09       25.08       25.07       25.05       25.04       25.03       25.01       25.00    
  13    26.53       26.50       26.45       26.37       26.27       26.16       26.04       25.93       25.82       25.72    
        25.63       25.55       25.48       25.41       25.40       25.38       25.36       25.34       25.32       25.30    
        25.28       25.26       25.24       25.23       25.21       25.19       25.18       25.16       25.15       25.13    
        25.12       25.10       25.09       25.08       25.06       25.05       25.04       25.03       25.01       25.00    
  14    26.20       26.18       26.14       26.08       26.01       25.93       25.85       25.76       25.68       25.61    
        25.54       25.47       25.41       25.40       25.38       25.36       25.35       25.33       25.31       25.29    
        25.27       25.25       25.23       25.22       25.20       25.19       25.17       25.16       25.14       25.13    
        25.11       25.10       25.09       25.07       25.06       25.05       25.04       25.02       25.01       25.00    
  15    25.95       25.93       25.90       25.86       25.81       25.75       25.69       25.63       25.58       25.52    
        25.47       25.41       25.40       25.38       25.36       25.35       25.33       25.31       25.29       25.28    
        25.26       25.24       25.23       25.21       25.19       25.18       25.17       25.15       25.14       25.12    
        25.11       25.10       25.09       25.07       25.06       25.05       25.04       25.02       25.01       25.00    
  16    25.75       25.74       25.72       25.69       25.65       25.61       25.57       25.53       25.49       25.46    
        25.43       25.40       25.38       25.36       25.35       25.33       25.31       25.30       25.28       25.26    
        25.25       25.23       25.22       25.20       25.19       25.17       25.16       25.15       25.13       25.12    
        25.11       25.09       25.08       25.07       25.06       25.05       25.03       25.02       25.01       25.00    
  17    25.60       25.59       25.58       25.56       25.53       25.50       25.47       25.45       25.41       25.41    
        25.40       25.38       25.36       25.35       25.33       25.31       25.30       25.28       25.27       25.25    
        25.24       25.22       25.21       25.19       25.18       25.17       25.15       25.14       25.13       25.11    
        25.10       25.09       25.08       25.07       25.06       25.04       25.03       25.02       25.01       25.00    
  18    25.48       25.47       25.47       25.46       25.44       25.41       25.39       25.40       25.39       25.38    
        25.37       25.36       25.34       25.33       25.31       25.30       25.28       25.27       25.25       25.24    
        25.23       25.21       25.20       25.18       25.17       25.16       25.15       25.13       25.12       25.11    
        25.10       25.09       25.08       25.06       25.05       25.04       25.03       25.02       25.01       25.00    
  19    25.37       25.37       25.37       25.37       25.39       25.38       25.38       25.37       25.37       25.36    
        25.35       25.33       25.32       25.31       25.29       25.28       25.27       25.25       25.24       25.23    
        25.21       25.20       25.19       25.18       25.16       25.15       25.14       25.13       25.12       25.11    
        25.09       25.08       25.07       25.06       25.05       25.04       25.03       25.02       25.01       25.00    
  20    25.35       25.35       25.35       25.35       25.36       25.36       25.35       25.35       25.34       25.33    
        25.32       25.31       25.30       25.29       25.28       25.26       25.25       25.24       25.23       25.21    
        25.20       25.19       25.18       25.17       25.16       25.14       25.13       25.12       25.11       25.10    
        25.09       25.08       25.07       25.06       25.05       25.04       25.03       25.02       25.01       25.00    
  21    25.33       25.33       25.33       25.33       25.33       25.33       25.33       25.32       25.32       25.31    
        25.30       25.29       25.28       25.27       25.26       25.25       25.24       25.23       25.21       25.20    
        25.19       25.18       25.17       25.16       25.15       25.14       25.13       25.12       25.11       25.10    
        25.09       25.08       25.07       25.06       25.05       25.04       25.03       25.02       25.01       25.00    
  22    25.31       25.31       25.31       25.31       25.31       25.31       25.30       25.30       25.29       25.29    
        25.28       25.27       25.26       25.25       25.24       25.23       25.22       25.21       25.20       25.19    
        25.18       25.17       25.16       25.15       25.14       25.13       25.12       25.11       25.10       25.09    
        25.08       25.07       25.06       25.05       25.04       25.04       25.03       25.02       25.01       25.00    
  23    25.29       25.29       25.29       25.29       25.29       25.28       25.28       25.28       25.27       25.27    
        25.26       25.25       25.24       25.23       25.23       25.22       25.21       25.20       25.19       25.18    
        25.17       25.16       25.15       25.14       25.13       25.12       25.11       25.10       25.09       25.09    
        25.08       25.07       25.06       25.05       25.04       25.03       25.03       25.02       25.01       25.00    
  24    25.27       25.27       25.27       25.27       25.27       25.26       25.26       25.26       25.25       25.25    
        25.24       25.23       25.23       25.22       25.21       25.20       25.19       25.18       25.18       25.17    
        25.16       25.15       25.14       25.13       25.12       25.11       25.11       25.10       25.09       25.08    
        25.07       25.06       25.06       25.05       25.04       25.03       25.02       25.02       25.01       25.00    
  25    25.25       25.25       25.25       25.25       25.25       25.24       25.24       25.24       25.23       25.23    
        25.22       25.22       25.21       25.20       25.19       25.19       25.18       25.17       25.16       25.16    
        25.15       25.14       25.13       25.12       25.11       25.11       25.10       25.09       25.08       25.07    
        25.07       25.06       25.05       25.04       25.04       25.03       25.02       25.01       25.01       25.00    
  26    25.23       25.23       25.23       25.23       25.23       25.22       25.22       25.22       25.21       25.21    
        25.20       25.20       25.19       25.19       25.18       25.17       25.17       25.16       25.15       25.14    
        25.14       25.13       25.12       25.11       25.11       25.10       25.09       25.08       25.08       25.07    
        25.06       25.06       25.05       25.04       25.03       25.03       25.02       25.01       25.01       25.00    
  27    25.21       25.21       25.21       25.21       25.21       25.21       25.20       25.20       25.20       25.19    
        25.19       25.18       25.18       25.17       25.17       25.16       25.15       25.15       25.14       25.13    
        25.13       25.12       25.11       25.11       25.10       25.09       25.08       25.08       25.07       25.06    
        25.06       25.05       25.04       25.04       25.03       25.03       25.02       25.01       25.01       25.00    
  28    25.19       25.19       25.19       25.19       25.19       25.19       25.18       25.18       25.18       25.18    
        25.17       25.17       25.16       25.16       25.15       25.15       25.14       25.13       25.13       25.12    
        25.12       25.11       25.10       25.10       25.09       25.08       25.08       25.07       25.07       25.06    
        25.05       25.05       25.04       25.04       25.03       25.02       25.02       25.01       25.01       25.00    
  29    25.18       25.18       25.17       25.17       25.17       25.17       25.17       25.17       25.16       25.16    
        25.16       25.15       25.15       25.14       25.14       25.13       25.13       25.12       25.12       25.11    
        25.11       25.10       25.09       25.09       25.08       25.08       25.07       25.07       25.06       25.05    
        25.05       25.04       25.04       25.03       25.03       25.02       25.02       25.01       25.01       25.00    
  30    25.16       25.16       25.16       25.16       25.15       25.15       25.15       25.15       25.15       25.14    
        25.14       25.14       25.13       25.13       25.12       25.12       25.11       25.11       25.11       25.10    
        25.10       25.09       25.09       25.08       25.07       25.07       25.06       25.06       25.05       25.05    
        25.04       25.04       25.03       25.03       25.02       25.02       25.01       25.01       25.00       25.00    
  31    25.14       25.14       25.14       25.14       25.14       25.14       25.13       25.13       25.13       25.13    
        25.12       25.12       25.12       25.11       25.11       25.11       25.10       25.10       25.09       25.09    
        25.09       25.08       25.08       25.07       25.07       25.06       25.06       25.05       25.05       25.04    
        25.04       25.04       25.03       25.03       25.02       25.02       25.01       25.01       25.00       25.00    
  32    25.12       25.12       25.12       25.12       25.12       25.12       25.12       25.12       25.11       25.11    
        25.11       25.11       25.10       25.10       25.10       25.09       25.09       25.09       25.08       25.08    
        25.08       25.07       25.07       25.06       25.06       25.06       25.05       25.05       25.04       25.04    
        25.04       25.03       25.03       25.02       25.02       25.02       25.01       25.01       25.00       25.00    
  33    25.11       25.11       25.11       25.11       25.11       25.10       25.10       25.10       25.10       25.10    
        25.10       25.09       25.09       25.09       25.09       25.08       25.08       25.08       25.07       25.07    
        25.07       25.06       25.06       25.06       25.05       25.05       25.04       25.04       25.04       25.03    
        25.03       25.03       25.02       25.02       25.02       25.01       25.01       25.01       25.00       25.00    
  34    25.09       25.09       25.09       25.09       25.09       25.09       25.09       25.09       25.08       25.08    
        25.08       25.08       25.08       25.07       25.07       25.07       25.07       25.06       25.06       25.06    
        25.06       25.05       25.05       25.05       25.04       25.04       25.04       25.04       25.03       25.03    
        25.03       25.02       25.02       25.02       25.01       25.01       25.01       25.01       25.00       25.00    
  35    25.08       25.08       25.08       25.08       25.07       25.07       25.07       25.07       25.07       25.07    
        25.07       25.07       25.06       25.06       25.06       25.06       25.06       25.05       25.05       25.05    
        25.05       25.04       25.04       25.04       25.04       25.03       25.03       25.03       25.03       25.02    
        25.02       25.02       25.02       25.01       25.01       25.01       25.01       25.00       25.00       25.00    
  36    25.06       25.06       25.06       25.06       25.06       25.06       25.06       25.06       25.06       25.06    
        25.05       25.05       25.05       25.05       25.05       25.05       25.04       25.04       25.04       25.04    
        25.04       25.04       25.03       25.03       25.03       25.03       25.03       25.02       25.02       25.02    
        25.02       25.02       25.01       25.01       25.01       25.01       25.01       25.00       25.00       25.00    
  37    25.05       25.05       25.05       25.04       25.04       25.04       25.04       25.04       25.04       25.04    
        25.04       25.04       25.04       25.04       25.04       25.03       25.03       25.03       25.03       25.03    
        25.03       25.03       25.03       25.02       25.02       25.02       25.02       25.02       25.02       25.01    
        25.01       25.01       25.01       25.01       25.01       25.01       25.00       25.00       25.00       25.00    
  38    25.03       25.03       25.03       25.03       25.03       25.03       25.03       25.03       25.03       25.03    
        25.03       25.03       25.03       25.02       25.02       25.02       25.02       25.02       25.02       25.02    
        25.02       25.02       25.02       25.02       25.01       25.01       25.01       25.01       25.01       25.01    
        25.01       25.01       25.01       25.01       25.00       25.00       25.00       25.00       25.00       25.00    
  39    25.02       25.02       25.01       25.01       25.01       25.01       25.01       25.01       25.01       25.01    
        25.01       25.01       25.01       25.01       25.01       25.01       25.01       25.01       25.01       25.01    
        25.01       25.01       25.01       25.01       25.01       25.01       25.01       25.01       25.01       25.00    
        25.00       25.00       25.00       25.00       25.00       25.00       25.00       25.00       25.00       25.00    
  40    25.00       25.00       25.00       25.00       25.00       25.00       25.00       25.00       25.00       25.00    
        25.00       25.00       25.00       25.00       25.00       25.00       25.00       25.00       25.00       25.00    
        25.00       25.00       25.00       25.00       25.00       25.00       25.00       25.00       25.00       25.00    
        25.00       25.00       25.00       25.00       25.00       25.00       25.00       25.00       25.00       25.00    
1
              HEAD IN LAYER  12 AT END OF TIME STEP   1 IN STRESS PERIOD    3
  ---------------------------------------------------------------------------

            1           2           3           4           5           6           7           8           9          10
           11          12          13          14          15          16          17          18          19          20
           21          22          23          24          25          26          27          28          29          30
           31          32          33          34          35          36          37          38          39          40
 ........................................................................................................................
   1    45.20       43.61       40.35       37.40       34.96       33.00       31.40       30.09       29.04       28.19    
        27.51       26.97       26.54       26.21       25.95       25.75       25.60       25.48       25.38       25.36    
        25.33       25.31       25.29       25.27       25.25       25.23       25.21       25.19       25.18       25.16    
        25.14       25.12       25.11       25.09       25.08       25.06       25.05       25.03       25.02       25.00    
   2    43.61       42.22       39.34       36.72       34.51       32.69       31.18       29.94       28.93       28.11    
        27.45       26.92       26.51       26.19       25.94       25.74       25.59       25.47       25.38       25.35    
        25.33       25.31       25.29       25.27       25.25       25.23       25.21       25.19       25.18       25.16    
        25.14       25.12       25.11       25.09       25.08       25.06       25.05       25.03       25.02       25.00    
   3    40.35       39.34       37.47       35.50       33.70       32.13       30.78       29.65       28.72       27.96    
        27.34       26.84       26.45       26.15       25.91       25.72       25.58       25.47       25.38       25.35    
        25.33       25.31       25.29       25.27       25.25       25.23       25.21       25.19       25.17       25.16    
        25.14       25.12       25.11       25.09       25.08       25.06       25.05       25.03       25.01       25.00    
   4    37.40       36.72       35.50       34.09       32.69       31.41       30.26       29.27       28.44       27.75    
        27.19       26.73       26.37       26.09       25.86       25.69       25.56       25.46       25.38       25.36    
        25.33       25.31       25.29       25.27       25.25       25.23       25.21       25.19       25.17       25.16    
        25.14       25.12       25.11       25.09       25.08       25.06       25.04       25.03       25.01       25.00    
   5    34.96       34.51       33.70       32.69       31.63       30.60       29.65       28.82       28.10       27.50    
        27.00       26.60       26.27       26.02       25.81       25.66       25.54       25.44       25.39       25.36    
        25.33       25.31       25.29       25.27       25.25       25.23       25.21       25.19       25.17       25.15    
        25.14       25.12       25.11       25.09       25.07       25.06       25.04       25.03       25.01       25.00    
   6    33.00       32.69       32.13       31.41       30.60       29.79       29.03       28.35       27.75       27.23    
        26.80       26.45       26.16       25.94       25.76       25.62       25.50       25.41       25.38       25.36    
        25.33       25.31       25.28       25.26       25.24       25.22       25.21       25.19       25.17       25.15    
        25.14       25.12       25.10       25.09       25.07       25.06       25.04       25.03       25.01       25.00    
   7    31.40       31.18       30.78       30.26       29.65       29.03       28.43       27.88       27.39       26.96    
        26.60       26.30       26.05       25.85       25.70       25.57       25.48       25.40       25.38       25.35    
        25.33       25.30       25.28       25.26       25.24       25.22       25.20       25.18       25.17       25.15    
        25.13       25.12       25.10       25.09       25.07       25.06       25.04       25.03       25.01       25.00    
   8    30.09       29.94       29.65       29.27       28.82       28.35       27.88       27.44       27.04       26.69    
        26.39       26.14       25.94       25.77       25.64       25.53       25.45       25.40       25.37       25.35    
        25.32       25.30       25.28       25.26       25.24       25.22       25.20       25.18       25.17       25.15    
        25.13       25.12       25.10       25.09       25.07       25.06       25.04       25.03       25.01       25.00    
   9    29.04       28.93       28.72       28.44       28.10       27.75       27.39       27.04       26.73       26.45    
        26.20       26.00       25.83       25.69       25.58       25.49       25.42       25.39       25.37       25.34    
        25.32       25.29       25.27       25.25       25.23       25.21       25.20       25.18       25.16       25.15    
        25.13       25.11       25.10       25.08       25.07       25.06       25.04       25.03       25.01       25.00    
  10    28.19       28.11       27.96       27.75       27.50       27.23       26.96       26.69       26.45       26.22    
        26.03       25.86       25.72       25.61       25.53       25.46       25.42       25.38       25.36       25.33    
        25.31       25.29       25.27       25.25       25.23       25.21       25.19       25.18       25.16       25.14    
        25.13       25.11       25.10       25.08       25.07       25.06       25.04       25.03       25.01       25.00    
  11    27.51       27.45       27.34       27.19       27.00       26.80       26.60       26.39       26.20       26.03    
        25.88       25.74       25.63       25.54       25.47       25.43       25.40       25.37       25.35       25.32    
        25.30       25.28       25.26       25.24       25.22       25.20       25.19       25.17       25.16       25.14    
        25.12       25.11       25.10       25.08       25.07       25.05       25.04       25.03       25.01       25.00    
  12    26.97       26.92       26.84       26.73       26.60       26.45       26.30       26.14       26.00       25.86    
        25.74       25.64       25.55       25.48       25.42       25.40       25.38       25.36       25.33       25.31    
        25.29       25.27       25.25       25.23       25.22       25.20       25.18       25.17       25.15       25.14    
        25.12       25.11       25.09       25.08       25.07       25.05       25.04       25.03       25.01       25.00    
  13    26.54       26.51       26.45       26.37       26.27       26.16       26.05       25.94       25.83       25.72    
        25.63       25.55       25.48       25.42       25.40       25.38       25.36       25.34       25.32       25.30    
        25.28       25.26       25.24       25.23       25.21       25.19       25.18       25.16       25.15       25.13    
        25.12       25.10       25.09       25.08       25.06       25.05       25.04       25.03       25.01       25.00    
  14    26.21       26.19       26.15       26.09       26.02       25.94       25.85       25.77       25.69       25.61    
        25.54       25.48       25.42       25.40       25.38       25.36       25.35       25.33       25.31       25.29    
        25.27       25.25       25.23       25.22       25.20       25.19       25.17       25.16       25.14       25.13    
        25.11       25.10       25.09       25.07       25.06       25.05       25.04       25.02       25.01       25.00    
  15    25.95       25.94       25.91       25.86       25.81       25.76       25.70       25.64       25.58       25.53    
        25.47       25.42       25.40       25.38       25.36       25.35       25.33       25.31       25.29       25.28    
        25.26       25.24       25.23       25.21       25.19       25.18       25.17       25.15       25.14       25.12    
        25.11       25.10       25.09       25.07       25.06       25.05       25.04       25.02       25.01       25.00    
  16    25.75       25.74       25.72       25.69       25.66       25.62       25.57       25.53       25.49       25.46    
        25.43       25.40       25.38       25.36       25.35       25.33       25.31       25.30       25.28       25.26    
        25.25       25.23       25.22       25.20       25.19       25.17       25.16       25.15       25.13       25.12    
        25.11       25.09       25.08       25.07       25.06       25.05       25.03       25.02       25.01       25.00    
  17    25.60       25.59       25.58       25.56       25.54       25.50       25.48       25.45       25.42       25.42    
        25.40       25.38       25.36       25.35       25.33       25.31       25.30       25.28       25.27       25.25    
        25.24       25.22       25.21       25.19       25.18       25.17       25.15       25.14       25.13       25.11    
        25.10       25.09       25.08       25.07       25.06       25.04       25.03       25.02       25.01       25.00    
  18    25.48       25.47       25.47       25.46       25.44       25.41       25.40       25.40       25.39       25.38    
        25.37       25.36       25.34       25.33       25.31       25.30       25.28       25.27       25.25       25.24    
        25.23       25.21       25.20       25.18       25.17       25.16       25.15       25.13       25.12       25.11    
        25.10       25.09       25.08       25.06       25.05       25.04       25.03       25.02       25.01       25.00    
  19    25.38       25.38       25.38       25.38       25.39       25.38       25.38       25.37       25.37       25.36    
        25.35       25.33       25.32       25.31       25.29       25.28       25.27       25.25       25.24       25.23    
        25.21       25.20       25.19       25.18       25.16       25.15       25.14       25.13       25.12       25.11    
        25.09       25.08       25.07       25.06       25.05       25.04       25.03       25.02       25.01       25.00    
  20    25.36       25.35       25.35       25.36       25.36       25.36       25.35       25.35       25.34       25.33    
        25.32       25.31       25.30       25.29       25.28       25.26       25.25       25.24       25.23       25.21    
        25.20       25.19       25.18       25.17       25.16       25.14       25.13       25.12       25.11       25.10    
        25.09       25.08       25.07       25.06       25.05       25.04       25.03       25.02       25.01       25.00    
  21    25.33       25.33       25.33       25.33       25.33       25.33       25.33       25.32       25.32       25.31    
        25.30       25.29       25.28       25.27       25.26       25.25       25.24       25.23       25.21       25.20    
        25.19       25.18       25.17       25.16       25.15       25.14       25.13       25.12       25.11       25.10    
        25.09       25.08       25.07       25.06       25.05       25.04       25.03       25.02       25.01       25.00    
  22    25.31       25.31       25.31       25.31       25.31       25.31       25.30       25.30       25.29       25.29    
        25.28       25.27       25.26       25.25       25.24       25.23       25.22       25.21       25.20       25.19    
        25.18       25.17       25.16       25.15       25.14       25.13       25.12       25.11       25.10       25.09    
        25.08       25.07       25.06       25.05       25.04       25.04       25.03       25.02       25.01       25.00    
  23    25.29       25.29       25.29       25.29       25.29       25.28       25.28       25.28       25.27       25.27    
        25.26       25.25       25.24       25.23       25.23       25.22       25.21       25.20       25.19       25.18    
        25.17       25.16       25.15       25.14       25.13       25.12       25.11       25.10       25.09       25.09    
        25.08       25.07       25.06       25.05       25.04       25.03       25.03       25.02       25.01       25.00    
  24    25.27       25.27       25.27       25.27       25.27       25.26       25.26       25.26       25.25       25.25    
        25.24       25.23       25.23       25.22       25.21       25.20       25.19       25.18       25.18       25.17    
        25.16       25.15       25.14       25.13       25.12       25.11       25.11       25.10       25.09       25.08    
        25.07       25.06       25.06       25.05       25.04       25.03       25.02       25.02       25.01       25.00    
  25    25.25       25.25       25.25       25.25       25.25       25.24       25.24       25.24       25.23       25.23    
        25.22       25.22       25.21       25.20       25.19       25.19       25.18       25.17       25.16       25.16    
        25.15       25.14       25.13       25.12       25.11       25.11       25.10       25.09       25.08       25.07    
        25.07       25.06       25.05       25.04       25.04       25.03       25.02       25.01       25.01       25.00    
  26    25.23       25.23       25.23       25.23       25.23       25.22       25.22       25.22       25.21       25.21    
        25.20       25.20       25.19       25.19       25.18       25.17       25.17       25.16       25.15       25.14    
        25.14       25.13       25.12       25.11       25.11       25.10       25.09       25.08       25.08       25.07    
        25.06       25.06       25.05       25.04       25.03       25.03       25.02       25.01       25.01       25.00    
  27    25.21       25.21       25.21       25.21       25.21       25.21       25.20       25.20       25.20       25.19    
        25.19       25.18       25.18       25.17       25.17       25.16       25.15       25.15       25.14       25.13    
        25.13       25.12       25.11       25.11       25.10       25.09       25.08       25.08       25.07       25.06    
        25.06       25.05       25.04       25.04       25.03       25.03       25.02       25.01       25.01       25.00    
  28    25.19       25.19       25.19       25.19       25.19       25.19       25.18       25.18       25.18       25.18    
        25.17       25.17       25.16       25.16       25.15       25.15       25.14       25.13       25.13       25.12    
        25.12       25.11       25.10       25.10       25.09       25.08       25.08       25.07       25.07       25.06    
        25.05       25.05       25.04       25.04       25.03       25.02       25.02       25.01       25.01       25.00    
  29    25.18       25.18       25.17       25.17       25.17       25.17       25.17       25.17       25.16       25.16    
        25.16       25.15       25.15       25.14       25.14       25.13       25.13       25.12       25.12       25.11    
        25.11       25.10       25.09       25.09       25.08       25.08       25.07       25.07       25.06       25.05    
        25.05       25.04       25.04       25.03       25.03       25.02       25.02       25.01       25.01       25.00    
  30    25.16       25.16       25.16       25.16       25.15       25.15       25.15       25.15       25.15       25.14    
        25.14       25.14       25.13       25.13       25.12       25.12       25.11       25.11       25.11       25.10    
        25.10       25.09       25.09       25.08       25.07       25.07       25.06       25.06       25.05       25.05    
        25.04       25.04       25.03       25.03       25.02       25.02       25.01       25.01       25.00       25.00    
  31    25.14       25.14       25.14       25.14       25.14       25.14       25.13       25.13       25.13       25.13    
        25.12       25.12       25.12       25.11       25.11       25.11       25.10       25.10       25.09       25.09    
        25.09       25.08       25.08       25.07       25.07       25.06       25.06       25.05       25.05       25.04    
        25.04       25.04       25.03       25.03       25.02       25.02       25.01       25.01       25.00       25.00    
  32    25.12       25.12       25.12       25.12       25.12       25.12       25.12       25.12       25.11       25.11    
        25.11       25.11       25.10       25.10       25.10       25.09       25.09       25.09       25.08       25.08    
        25.08       25.07       25.07       25.06       25.06       25.06       25.05       25.05       25.04       25.04    
        25.04       25.03       25.03       25.02       25.02       25.02       25.01       25.01       25.00       25.00    
  33    25.11       25.11       25.11       25.11       25.11       25.10       25.10       25.10       25.10       25.10    
        25.10       25.09       25.09       25.09       25.09       25.08       25.08       25.08       25.07       25.07    
        25.07       25.06       25.06       25.06       25.05       25.05       25.04       25.04       25.04       25.03    
        25.03       25.03       25.02       25.02       25.02       25.01       25.01       25.01       25.00       25.00    
  34    25.09       25.09       25.09       25.09       25.09       25.09       25.09       25.09       25.08       25.08    
        25.08       25.08       25.08       25.07       25.07       25.07       25.07       25.06       25.06       25.06    
        25.06       25.05       25.05       25.05       25.04       25.04       25.04       25.04       25.03       25.03    
        25.03       25.02       25.02       25.02       25.01       25.01       25.01       25.01       25.00       25.00    
  35    25.08       25.08       25.08       25.08       25.07       25.07       25.07       25.07       25.07       25.07    
        25.07       25.07       25.06       25.06       25.06       25.06       25.06       25.05       25.05       25.05    
        25.05       25.04       25.04       25.04       25.04       25.03       25.03       25.03       25.03       25.02    
        25.02       25.02       25.02       25.01       25.01       25.01       25.01       25.00       25.00       25.00    
  36    25.06       25.06       25.06       25.06       25.06       25.06       25.06       25.06       25.06       25.06    
        25.05       25.05       25.05       25.05       25.05       25.05       25.04       25.04       25.04       25.04    
        25.04       25.04       25.03       25.03       25.03       25.03       25.03       25.02       25.02       25.02    
        25.02       25.02       25.01       25.01       25.01       25.01       25.01       25.00       25.00       25.00    
  37    25.05       25.05       25.05       25.04       25.04       25.04       25.04       25.04       25.04       25.04    
        25.04       25.04       25.04       25.04       25.04       25.03       25.03       25.03       25.03       25.03    
        25.03       25.03       25.03       25.02       25.02       25.02       25.02       25.02       25.02       25.01    
        25.01       25.01       25.01       25.01       25.01       25.01       25.00       25.00       25.00       25.00    
  38    25.03       25.03       25.03       25.03       25.03       25.03       25.03       25.03       25.03       25.03    
        25.03       25.03       25.03       25.02       25.02       25.02       25.02       25.02       25.02       25.02    
        25.02       25.02       25.02       25.02       25.01       25.01       25.01       25.01       25.01       25.01    
        25.01       25.01       25.01       25.01       25.00       25.00       25.00       25.00       25.00       25.00    
  39    25.02       25.02       25.01       25.01       25.01       25.01       25.01       25.01       25.01       25.01    
        25.01       25.01       25.01       25.01       25.01       25.01       25.01       25.01       25.01       25.01    
        25.01       25.01       25.01       25.01       25.01       25.01       25.01       25.01       25.01       25.00    
        25.00       25.00       25.00       25.00       25.00       25.00       25.00       25.00       25.00       25.00    
  40    25.00       25.00       25.00       25.00       25.00       25.00       25.00       25.00       25.00       25.00    
        25.00       25.00       25.00       25.00       25.00       25.00       25.00       25.00       25.00       25.00    
        25.00       25.00       25.00       25.00       25.00       25.00       25.00       25.00       25.00       25.00    
        25.00       25.00       25.00       25.00       25.00       25.00       25.00       25.00       25.00       25.00    
1
              HEAD IN LAYER  13 AT END OF TIME STEP   1 IN STRESS PERIOD    3
  ---------------------------------------------------------------------------

            1           2           3           4           5           6           7           8           9          10
           11          12          13          14          15          16          17          18          19          20
           21          22          23          24          25          26          27          28          29          30
           31          32          33          34          35          36          37          38          39          40
 ........................................................................................................................
   1    45.00       43.43       40.30       37.38       34.96       33.00       31.41       30.10       29.04       28.19    
        27.51       26.97       26.54       26.21       25.95       25.75       25.60       25.48       25.38       25.36    
        25.33       25.31       25.29       25.27       25.25       25.23       25.21       25.19       25.18       25.16    
        25.14       25.12       25.11       25.09       25.08       25.06       25.05       25.03       25.02       25.00    
   2    43.43       42.05       39.30       36.71       34.51       32.70       31.18       29.94       28.93       28.11    
        27.45       26.93       26.51       26.19       25.94       25.74       25.59       25.48       25.38       25.36    
        25.33       25.31       25.29       25.27       25.25       25.23       25.21       25.19       25.18       25.16    
        25.14       25.12       25.11       25.09       25.08       25.06       25.05       25.03       25.02       25.00    
   3    40.30       39.30       37.46       35.50       33.70       32.14       30.79       29.66       28.73       27.96    
        27.34       26.85       26.46       26.15       25.91       25.72       25.58       25.47       25.38       25.35    
        25.33       25.31       25.29       25.27       25.25       25.23       25.21       25.19       25.17       25.16    
        25.14       25.12       25.11       25.09       25.08       25.06       25.05       25.03       25.01       25.00    
   4    37.38       36.71       35.50       34.09       32.70       31.41       30.26       29.27       28.44       27.75    
        27.19       26.74       26.38       26.09       25.87       25.69       25.56       25.46       25.38       25.36    
        25.33       25.31       25.29       25.27       25.25       25.23       25.21       25.19       25.17       25.16    
        25.14       25.12       25.11       25.09       25.08       25.06       25.04       25.03       25.01       25.00    
   5    34.96       34.51       33.70       32.70       31.63       30.60       29.66       28.83       28.11       27.51    
        27.01       26.60       26.28       26.02       25.82       25.66       25.54       25.45       25.39       25.36    
        25.33       25.31       25.29       25.27       25.25       25.23       25.21       25.19       25.17       25.15    
        25.14       25.12       25.11       25.09       25.07       25.06       25.04       25.03       25.01       25.00    
   6    33.00       32.70       32.14       31.41       30.60       29.80       29.04       28.35       27.75       27.24    
        26.81       26.45       26.17       25.94       25.76       25.62       25.51       25.42       25.38       25.36    
        25.33       25.31       25.28       25.26       25.24       25.22       25.21       25.19       25.17       25.15    
        25.14       25.12       25.10       25.09       25.07       25.06       25.04       25.03       25.01       25.00    
   7    31.41       31.18       30.79       30.26       29.66       29.04       28.44       27.88       27.39       26.96    
        26.60       26.30       26.05       25.85       25.70       25.57       25.48       25.40       25.38       25.35    
        25.33       25.30       25.28       25.26       25.24       25.22       25.20       25.18       25.17       25.15    
        25.13       25.12       25.10       25.09       25.07       25.06       25.04       25.03       25.01       25.00    
   8    30.10       29.94       29.66       29.27       28.83       28.35       27.88       27.45       27.05       26.70    
        26.40       26.15       25.94       25.77       25.64       25.53       25.45       25.40       25.37       25.35    
        25.32       25.30       25.28       25.26       25.24       25.22       25.20       25.18       25.17       25.15    
        25.13       25.12       25.10       25.09       25.07       25.06       25.04       25.03       25.01       25.00    
   9    29.04       28.93       28.73       28.44       28.11       27.75       27.39       27.05       26.73       26.45    
        26.21       26.00       25.83       25.69       25.58       25.49       25.42       25.39       25.37       25.34    
        25.32       25.29       25.27       25.25       25.23       25.21       25.20       25.18       25.16       25.15    
        25.13       25.11       25.10       25.08       25.07       25.06       25.04       25.03       25.01       25.00    
  10    28.19       28.11       27.96       27.75       27.51       27.24       26.96       26.70       26.45       26.23    
        26.03       25.87       25.73       25.61       25.53       25.46       25.42       25.38       25.36       25.33    
        25.31       25.29       25.27       25.25       25.23       25.21       25.19       25.18       25.16       25.14    
        25.13       25.11       25.10       25.08       25.07       25.06       25.04       25.03       25.01       25.00    
  11    27.51       27.45       27.34       27.19       27.01       26.81       26.60       26.40       26.21       26.03    
        25.88       25.75       25.63       25.54       25.48       25.43       25.40       25.37       25.35       25.32    
        25.30       25.28       25.26       25.24       25.22       25.20       25.19       25.17       25.16       25.14    
        25.12       25.11       25.10       25.08       25.07       25.05       25.04       25.03       25.01       25.00    
  12    26.97       26.93       26.85       26.74       26.60       26.45       26.30       26.15       26.00       25.87    
        25.75       25.64       25.55       25.48       25.42       25.40       25.38       25.36       25.33       25.31    
        25.29       25.27       25.25       25.23       25.22       25.20       25.18       25.17       25.15       25.14    
        25.12       25.11       25.09       25.08       25.07       25.05       25.04       25.03       25.01       25.00    
  13    26.54       26.51       26.46       26.38       26.28       26.17       26.05       25.94       25.83       25.73    
        25.63       25.55       25.48       25.42       25.40       25.38       25.36       25.34       25.32       25.30    
        25.28       25.26       25.24       25.23       25.21       25.19       25.18       25.16       25.15       25.13    
        25.12       25.10       25.09       25.08       25.06       25.05       25.04       25.03       25.01       25.00    
  14    26.21       26.19       26.15       26.09       26.02       25.94       25.85       25.77       25.69       25.61    
        25.54       25.48       25.42       25.40       25.38       25.36       25.35       25.33       25.31       25.29    
        25.27       25.25       25.23       25.22       25.20       25.19       25.17       25.16       25.14       25.13    
        25.11       25.10       25.09       25.07       25.06       25.05       25.04       25.02       25.01       25.00    
  15    25.95       25.94       25.91       25.87       25.82       25.76       25.70       25.64       25.58       25.53    
        25.48       25.42       25.40       25.38       25.36       25.35       25.33       25.31       25.29       25.28    
        25.26       25.24       25.23       25.21       25.19       25.18       25.17       25.15       25.14       25.12    
        25.11       25.10       25.09       25.07       25.06       25.05       25.04       25.02       25.01       25.00    
  16    25.75       25.74       25.72       25.69       25.66       25.62       25.57       25.53       25.49       25.46    
        25.43       25.40       25.38       25.36       25.35       25.33       25.31       25.30       25.28       25.26    
        25.25       25.23       25.22       25.20       25.19       25.17       25.16       25.15       25.13       25.12    
        25.11       25.09       25.08       25.07       25.06       25.05       25.03       25.02       25.01       25.00    
  17    25.60       25.59       25.58       25.56       25.54       25.51       25.48       25.45       25.42       25.42    
        25.40       25.38       25.36       25.35       25.33       25.31       25.30       25.28       25.27       25.25    
        25.24       25.22       25.21       25.19       25.18       25.17       25.15       25.14       25.13       25.11    
        25.10       25.09       25.08       25.07       25.06       25.04       25.03       25.02       25.01       25.00    
  18    25.48       25.48       25.47       25.46       25.45       25.42       25.40       25.40       25.39       25.38    
        25.37       25.36       25.34       25.33       25.31       25.30       25.28       25.27       25.25       25.24    
        25.23       25.21       25.20       25.18       25.17       25.16       25.15       25.13       25.12       25.11    
        25.10       25.09       25.08       25.06       25.05       25.04       25.03       25.02       25.01       25.00    
  19    25.38       25.38       25.38       25.38       25.39       25.38       25.38       25.37       25.37       25.36    
        25.35       25.33       25.32       25.31       25.29       25.28       25.27       25.25       25.24       25.23    
        25.21       25.20       25.19       25.18       25.16       25.15       25.14       25.13       25.12       25.11    
        25.09       25.08       25.07       25.06       25.05       25.04       25.03       25.02       25.01       25.00    
  20    25.36       25.36       25.35       25.36       25.36       25.36       25.35       25.35       25.34       25.33    
        25.32       25.31       25.30       25.29       25.28       25.26       25.25       25.24       25.23       25.21    
        25.20       25.19       25.18       25.17       25.16       25.14       25.13       25.12       25.11       25.10    
        25.09       25.08       25.07       25.06       25.05       25.04       25.03       25.02       25.01       25.00    
  21    25.33       25.33       25.33       25.33       25.33       25.33       25.33       25.32       25.32       25.31    
        25.30       25.29       25.28       25.27       25.26       25.25       25.24       25.23       25.21       25.20    
        25.19       25.18       25.17       25.16       25.15       25.14       25.13       25.12       25.11       25.10    
        25.09       25.08       25.07       25.06       25.05       25.04       25.03       25.02       25.01       25.00    
  22    25.31       25.31       25.31       25.31       25.31       25.31       25.30       25.30       25.29       25.29    
        25.28       25.27       25.26       25.25       25.24       25.23       25.22       25.21       25.20       25.19    
        25.18       25.17       25.16       25.15       25.14       25.13       25.12       25.11       25.10       25.09    
        25.08       25.07       25.06       25.05       25.04       25.04       25.03       25.02       25.01       25.00    
  23    25.29       25.29       25.29       25.29       25.29       25.28       25.28       25.28       25.27       25.27    
        25.26       25.25       25.24       25.23       25.23       25.22       25.21       25.20       25.19       25.18    
        25.17       25.16       25.15       25.14       25.13       25.12       25.11       25.10       25.09       25.09    
        25.08       25.07       25.06       25.05       25.04       25.03       25.03       25.02       25.01       25.00    
  24    25.27       25.27       25.27       25.27       25.27       25.26       25.26       25.26       25.25       25.25    
        25.24       25.23       25.23       25.22       25.21       25.20       25.19       25.18       25.18       25.17    
        25.16       25.15       25.14       25.13       25.12       25.11       25.11       25.10       25.09       25.08    
        25.07       25.06       25.06       25.05       25.04       25.03       25.02       25.02       25.01       25.00    
  25    25.25       25.25       25.25       25.25       25.25       25.24       25.24       25.24       25.23       25.23    
        25.22       25.22       25.21       25.20       25.19       25.19       25.18       25.17       25.16       25.16    
        25.15       25.14       25.13       25.12       25.11       25.11       25.10       25.09       25.08       25.07    
        25.07       25.06       25.05       25.04       25.04       25.03       25.02       25.01       25.01       25.00    
  26    25.23       25.23       25.23       25.23       25.23       25.22       25.22       25.22       25.21       25.21    
        25.20       25.20       25.19       25.19       25.18       25.17       25.17       25.16       25.15       25.14    
        25.14       25.13       25.12       25.11       25.11       25.10       25.09       25.08       25.08       25.07    
        25.06       25.06       25.05       25.04       25.03       25.03       25.02       25.01       25.01       25.00    
  27    25.21       25.21       25.21       25.21       25.21       25.21       25.20       25.20       25.20       25.19    
        25.19       25.18       25.18       25.17       25.17       25.16       25.15       25.15       25.14       25.13    
        25.13       25.12       25.11       25.11       25.10       25.09       25.08       25.08       25.07       25.06    
        25.06       25.05       25.04       25.04       25.03       25.03       25.02       25.01       25.01       25.00    
  28    25.19       25.19       25.19       25.19       25.19       25.19       25.18       25.18       25.18       25.18    
        25.17       25.17       25.16       25.16       25.15       25.15       25.14       25.13       25.13       25.12    
        25.12       25.11       25.10       25.10       25.09       25.08       25.08       25.07       25.07       25.06    
        25.05       25.05       25.04       25.04       25.03       25.02       25.02       25.01       25.01       25.00    
  29    25.18       25.18       25.17       25.17       25.17       25.17       25.17       25.17       25.16       25.16    
        25.16       25.15       25.15       25.14       25.14       25.13       25.13       25.12       25.12       25.11    
        25.11       25.10       25.09       25.09       25.08       25.08       25.07       25.07       25.06       25.05    
        25.05       25.04       25.04       25.03       25.03       25.02       25.02       25.01       25.01       25.00    
  30    25.16       25.16       25.16       25.16       25.15       25.15       25.15       25.15       25.15       25.14    
        25.14       25.14       25.13       25.13       25.12       25.12       25.11       25.11       25.11       25.10    
        25.10       25.09       25.09       25.08       25.07       25.07       25.06       25.06       25.05       25.05    
        25.04       25.04       25.03       25.03       25.02       25.02       25.01       25.01       25.00       25.00    
  31    25.14       25.14       25.14       25.14       25.14       25.14       25.13       25.13       25.13       25.13    
        25.12       25.12       25.12       25.11       25.11       25.11       25.10       25.10       25.09       25.09    
        25.09       25.08       25.08       25.07       25.07       25.06       25.06       25.05       25.05       25.04    
        25.04       25.04       25.03       25.03       25.02       25.02       25.01       25.01       25.00       25.00    
  32    25.12       25.12       25.12       25.12       25.12       25.12       25.12       25.12       25.11       25.11    
        25.11       25.11       25.10       25.10       25.10       25.09       25.09       25.09       25.08       25.08    
        25.08       25.07       25.07       25.06       25.06       25.06       25.05       25.05       25.04       25.04    
        25.04       25.03       25.03       25.02       25.02       25.02       25.01       25.01       25.00       25.00    
  33    25.11       25.11       25.11       25.11       25.11       25.10       25.10       25.10       25.10       25.10    
        25.10       25.09       25.09       25.09       25.09       25.08       25.08       25.08       25.07       25.07    
        25.07       25.06       25.06       25.06       25.05       25.05       25.04       25.04       25.04       25.03    
        25.03       25.03       25.02       25.02       25.02       25.01       25.01       25.01       25.00       25.00    
  34    25.09       25.09       25.09       25.09       25.09       25.09       25.09       25.09       25.08       25.08    
        25.08       25.08       25.08       25.07       25.07       25.07       25.07       25.06       25.06       25.06    
        25.06       25.05       25.05       25.05       25.04       25.04       25.04       25.04       25.03       25.03    
        25.03       25.02       25.02       25.02       25.01       25.01       25.01       25.01       25.00       25.00    
  35    25.08       25.08       25.08       25.08       25.07       25.07       25.07       25.07       25.07       25.07    
        25.07       25.07       25.06       25.06       25.06       25.06       25.06       25.05       25.05       25.05    
        25.05       25.04       25.04       25.04       25.04       25.03       25.03       25.03       25.03       25.02    
        25.02       25.02       25.02       25.01       25.01       25.01       25.01       25.00       25.00       25.00    
  36    25.06       25.06       25.06       25.06       25.06       25.06       25.06       25.06       25.06       25.06    
        25.05       25.05       25.05       25.05       25.05       25.05       25.04       25.04       25.04       25.04    
        25.04       25.04       25.03       25.03       25.03       25.03       25.03       25.02       25.02       25.02    
        25.02       25.02       25.01       25.01       25.01       25.01       25.01       25.00       25.00       25.00    
  37    25.05       25.05       25.05       25.04       25.04       25.04       25.04       25.04       25.04       25.04    
        25.04       25.04       25.04       25.04       25.04       25.03       25.03       25.03       25.03       25.03    
        25.03       25.03       25.03       25.02       25.02       25.02       25.02       25.02       25.02       25.01    
        25.01       25.01       25.01       25.01       25.01       25.01       25.00       25.00       25.00       25.00    
  38    25.03       25.03       25.03       25.03       25.03       25.03       25.03       25.03       25.03       25.03    
        25.03       25.03       25.03       25.02       25.02       25.02       25.02       25.02       25.02       25.02    
        25.02       25.02       25.02       25.02       25.01       25.01       25.01       25.01       25.01       25.01    
        25.01       25.01       25.01       25.01       25.00       25.00       25.00       25.00       25.00       25.00    
  39    25.02       25.02       25.01       25.01       25.01       25.01       25.01       25.01       25.01       25.01    
        25.01       25.01       25.01       25.01       25.01       25.01       25.01       25.01       25.01       25.01    
        25.01       25.01       25.01       25.01       25.01       25.01       25.01       25.01       25.01       25.00    
        25.00       25.00       25.00       25.00       25.00       25.00       25.00       25.00       25.00       25.00    
  40    25.00       25.00       25.00       25.00       25.00       25.00       25.00       25.00       25.00       25.00    
        25.00       25.00       25.00       25.00       25.00       25.00       25.00       25.00       25.00       25.00    
        25.00       25.00       25.00       25.00       25.00       25.00       25.00       25.00       25.00       25.00    
        25.00       25.00       25.00       25.00       25.00       25.00       25.00       25.00       25.00       25.00    
1
              HEAD IN LAYER  14 AT END OF TIME STEP   1 IN STRESS PERIOD    3
  ---------------------------------------------------------------------------

            1           2           3           4           5           6           7           8           9          10
           11          12          13          14          15          16          17          18          19          20
           21          22          23          24          25          26          27          28          29          30
           31          32          33          34          35          36          37          38          39          40
 ........................................................................................................................
   1    44.90       43.34       40.27       37.38       34.96       33.01       31.41       30.10       29.05       28.20    
        27.51       26.97       26.55       26.21       25.96       25.76       25.60       25.48       25.39       25.36    
        25.33       25.31       25.29       25.27       25.25       25.23       25.21       25.19       25.18       25.16    
        25.14       25.12       25.11       25.09       25.08       25.06       25.05       25.03       25.02       25.00    
   2    43.34       41.97       39.27       36.70       34.51       32.70       31.18       29.94       28.94       28.12    
        27.46       26.93       26.52       26.19       25.94       25.75       25.59       25.48       25.38       25.36    
        25.33       25.31       25.29       25.27       25.25       25.23       25.21       25.19       25.18       25.16    
        25.14       25.12       25.11       25.09       25.08       25.06       25.05       25.03       25.02       25.00    
   3    40.27       39.27       37.45       35.50       33.70       32.14       30.79       29.66       28.73       27.97    
        27.35       26.85       26.46       26.15       25.91       25.72       25.58       25.47       25.38       25.35    
        25.33       25.31       25.29       25.27       25.25       25.23       25.21       25.19       25.17       25.16    
        25.14       25.12       25.11       25.09       25.08       25.06       25.05       25.03       25.01       25.00    
   4    37.38       36.70       35.50       34.09       32.70       31.41       30.27       29.28       28.45       27.76    
        27.19       26.74       26.38       26.09       25.87       25.70       25.56       25.46       25.38       25.36    
        25.33       25.31       25.29       25.27       25.25       25.23       25.21       25.19       25.17       25.16    
        25.14       25.12       25.11       25.09       25.08       25.06       25.04       25.03       25.01       25.00    
   5    34.96       34.51       33.70       32.70       31.64       30.61       29.66       28.83       28.11       27.51    
        27.01       26.60       26.28       26.02       25.82       25.66       25.54       25.45       25.39       25.36    
        25.33       25.31       25.29       25.27       25.25       25.23       25.21       25.19       25.17       25.15    
        25.14       25.12       25.11       25.09       25.07       25.06       25.04       25.03       25.01       25.00    
   6    33.01       32.70       32.14       31.41       30.61       29.80       29.04       28.35       27.75       27.24    
        26.81       26.46       26.17       25.94       25.76       25.62       25.51       25.42       25.38       25.36    
        25.33       25.31       25.28       25.26       25.24       25.22       25.21       25.19       25.17       25.15    
        25.14       25.12       25.10       25.09       25.07       25.06       25.04       25.03       25.01       25.00    
   7    31.41       31.18       30.79       30.27       29.66       29.04       28.44       27.89       27.39       26.97    
        26.60       26.30       26.05       25.86       25.70       25.58       25.48       25.40       25.38       25.35    
        25.33       25.30       25.28       25.26       25.24       25.22       25.20       25.18       25.17       25.15    
        25.13       25.12       25.10       25.09       25.07       25.06       25.04       25.03       25.01       25.00    
   8    30.10       29.94       29.66       29.28       28.83       28.35       27.89       27.45       27.05       26.70    
        26.40       26.15       25.94       25.77       25.64       25.53       25.45       25.40       25.37       25.35    
        25.32       25.30       25.28       25.26       25.24       25.22       25.20       25.18       25.17       25.15    
        25.13       25.12       25.10       25.09       25.07       25.06       25.04       25.03       25.01       25.00    
   9    29.05       28.94       28.73       28.45       28.11       27.75       27.39       27.05       26.73       26.45    
        26.21       26.00       25.83       25.69       25.58       25.49       25.42       25.39       25.37       25.34    
        25.32       25.29       25.27       25.25       25.23       25.21       25.20       25.18       25.16       25.15    
        25.13       25.11       25.10       25.08       25.07       25.06       25.04       25.03       25.01       25.00    
  10    28.20       28.12       27.97       27.76       27.51       27.24       26.97       26.70       26.45       26.23    
        26.03       25.87       25.73       25.62       25.53       25.46       25.42       25.38       25.36       25.33    
        25.31       25.29       25.27       25.25       25.23       25.21       25.19       25.18       25.16       25.14    
        25.13       25.11       25.10       25.08       25.07       25.06       25.04       25.03       25.01       25.00    
  11    27.51       27.46       27.35       27.19       27.01       26.81       26.60       26.40       26.21       26.03    
        25.88       25.75       25.64       25.55       25.48       25.44       25.40       25.37       25.35       25.32    
        25.30       25.28       25.26       25.24       25.22       25.20       25.19       25.17       25.16       25.14    
        25.12       25.11       25.10       25.08       25.07       25.05       25.04       25.03       25.01       25.00    
  12    26.97       26.93       26.85       26.74       26.60       26.46       26.30       26.15       26.00       25.87    
        25.75       25.64       25.55       25.48       25.43       25.40       25.38       25.36       25.33       25.31    
        25.29       25.27       25.25       25.23       25.22       25.20       25.18       25.17       25.15       25.14    
        25.12       25.11       25.09       25.08       25.07       25.05       25.04       25.03       25.01       25.00    
  13    26.55       26.52       26.46       26.38       26.28       26.17       26.05       25.94       25.83       25.73    
        25.64       25.55       25.48       25.43       25.40       25.38       25.36       25.34       25.32       25.30    
        25.28       25.26       25.24       25.23       25.21       25.19       25.18       25.16       25.15       25.13    
        25.12       25.10       25.09       25.08       25.06       25.05       25.04       25.03       25.01       25.00    
  14    26.21       26.19       26.15       26.09       26.02       25.94       25.86       25.77       25.69       25.62    
        25.55       25.48       25.43       25.40       25.38       25.36       25.35       25.33       25.31       25.29    
        25.27       25.25       25.23       25.22       25.20       25.19       25.17       25.16       25.14       25.13    
        25.11       25.10       25.09       25.07       25.06       25.05       25.04       25.02       25.01       25.00    
  15    25.96       25.94       25.91       25.87       25.82       25.76       25.70       25.64       25.58       25.53    
        25.48       25.43       25.40       25.38       25.36       25.35       25.33       25.31       25.29       25.28    
        25.26       25.24       25.23       25.21       25.19       25.18       25.17       25.15       25.14       25.12    
        25.11       25.10       25.09       25.07       25.06       25.05       25.04       25.02       25.01       25.00    
  16    25.76       25.75       25.72       25.70       25.66       25.62       25.58       25.53       25.49       25.46    
        25.44       25.40       25.38       25.36       25.35       25.33       25.31       25.30       25.28       25.26    
        25.25       25.23       25.22       25.20       25.19       25.17       25.16       25.15       25.13       25.12    
        25.11       25.09       25.08       25.07       25.06       25.05       25.03       25.02       25.01       25.00    
  17    25.60       25.59       25.58       25.56       25.54       25.51       25.48       25.45       25.42       25.42    
        25.40       25.38       25.36       25.35       25.33       25.31       25.30       25.28       25.27       25.25    
        25.24       25.22       25.21       25.19       25.18       25.17       25.15       25.14       25.13       25.11    
        25.10       25.09       25.08       25.07       25.06       25.04       25.03       25.02       25.01       25.00    
  18    25.48       25.48       25.47       25.46       25.45       25.42       25.40       25.40       25.39       25.38    
        25.37       25.36       25.34       25.33       25.31       25.30       25.28       25.27       25.25       25.24    
        25.23       25.21       25.20       25.18       25.17       25.16       25.15       25.13       25.12       25.11    
        25.10       25.09       25.08       25.06       25.05       25.04       25.03       25.02       25.01       25.00    
  19    25.39       25.38       25.38       25.38       25.39       25.38       25.38       25.37       25.37       25.36    
        25.35       25.33       25.32       25.31       25.29       25.28       25.27       25.25       25.24       25.23    
        25.21       25.20       25.19       25.18       25.16       25.15       25.14       25.13       25.12       25.11    
        25.09       25.08       25.07       25.06       25.05       25.04       25.03       25.02       25.01       25.00    
  20    25.36       25.36       25.35       25.36       25.36       25.36       25.35       25.35       25.34       25.33    
        25.32       25.31       25.30       25.29       25.28       25.26       25.25       25.24       25.23       25.21    
        25.20       25.19       25.18       25.17       25.16       25.14       25.13       25.12       25.11       25.10    
        25.09       25.08       25.07       25.06       25.05       25.04       25.03       25.02       25.01       25.00    
  21    25.33       25.33       25.33       25.33       25.33       25.33       25.33       25.32       25.32       25.31    
        25.30       25.29       25.28       25.27       25.26       25.25       25.24       25.23       25.21       25.20    
        25.19       25.18       25.17       25.16       25.15       25.14       25.13       25.12       25.11       25.10    
        25.09       25.08       25.07       25.06       25.05       25.04       25.03       25.02       25.01       25.00    
  22    25.31       25.31       25.31       25.31       25.31       25.31       25.30       25.30       25.29       25.29    
        25.28       25.27       25.26       25.25       25.24       25.23       25.22       25.21       25.20       25.19    
        25.18       25.17       25.16       25.15       25.14       25.13       25.12       25.11       25.10       25.09    
        25.08       25.07       25.06       25.05       25.04       25.04       25.03       25.02       25.01       25.00    
  23    25.29       25.29       25.29       25.29       25.29       25.28       25.28       25.28       25.27       25.27    
        25.26       25.25       25.24       25.23       25.23       25.22       25.21       25.20       25.19       25.18    
        25.17       25.16       25.15       25.14       25.13       25.12       25.11       25.10       25.09       25.09    
        25.08       25.07       25.06       25.05       25.04       25.03       25.03       25.02       25.01       25.00    
  24    25.27       25.27       25.27       25.27       25.27       25.26       25.26       25.26       25.25       25.25    
        25.24       25.23       25.23       25.22       25.21       25.20       25.19       25.18       25.18       25.17    
        25.16       25.15       25.14       25.13       25.12       25.11       25.11       25.10       25.09       25.08    
        25.07       25.06       25.06       25.05       25.04       25.03       25.02       25.02       25.01       25.00    
  25    25.25       25.25       25.25       25.25       25.25       25.24       25.24       25.24       25.23       25.23    
        25.22       25.22       25.21       25.20       25.19       25.19       25.18       25.17       25.16       25.16    
        25.15       25.14       25.13       25.12       25.11       25.11       25.10       25.09       25.08       25.07    
        25.07       25.06       25.05       25.04       25.04       25.03       25.02       25.01       25.01       25.00    
  26    25.23       25.23       25.23       25.23       25.23       25.22       25.22       25.22       25.21       25.21    
        25.20       25.20       25.19       25.19       25.18       25.17       25.17       25.16       25.15       25.14    
        25.14       25.13       25.12       25.11       25.11       25.10       25.09       25.08       25.08       25.07    
        25.06       25.06       25.05       25.04       25.03       25.03       25.02       25.01       25.01       25.00    
  27    25.21       25.21       25.21       25.21       25.21       25.21       25.20       25.20       25.20       25.19    
        25.19       25.18       25.18       25.17       25.17       25.16       25.15       25.15       25.14       25.13    
        25.13       25.12       25.11       25.11       25.10       25.09       25.08       25.08       25.07       25.06    
        25.06       25.05       25.04       25.04       25.03       25.03       25.02       25.01       25.01       25.00    
  28    25.19       25.19       25.19       25.19       25.19       25.19       25.18       25.18       25.18       25.18    
        25.17       25.17       25.16       25.16       25.15       25.15       25.14       25.13       25.13       25.12    
        25.12       25.11       25.10       25.10       25.09       25.08       25.08       25.07       25.07       25.06    
        25.05       25.05       25.04       25.04       25.03       25.02       25.02       25.01       25.01       25.00    
  29    25.18       25.18       25.17       25.17       25.17       25.17       25.17       25.17       25.16       25.16    
        25.16       25.15       25.15       25.14       25.14       25.13       25.13       25.12       25.12       25.11    
        25.11       25.10       25.09       25.09       25.08       25.08       25.07       25.07       25.06       25.05    
        25.05       25.04       25.04       25.03       25.03       25.02       25.02       25.01       25.01       25.00    
  30    25.16       25.16       25.16       25.16       25.15       25.15       25.15       25.15       25.15       25.14    
        25.14       25.14       25.13       25.13       25.12       25.12       25.11       25.11       25.11       25.10    
        25.10       25.09       25.09       25.08       25.07       25.07       25.06       25.06       25.05       25.05    
        25.04       25.04       25.03       25.03       25.02       25.02       25.01       25.01       25.00       25.00    
  31    25.14       25.14       25.14       25.14       25.14       25.14       25.13       25.13       25.13       25.13    
        25.12       25.12       25.12       25.11       25.11       25.11       25.10       25.10       25.09       25.09    
        25.09       25.08       25.08       25.07       25.07       25.06       25.06       25.05       25.05       25.04    
        25.04       25.04       25.03       25.03       25.02       25.02       25.01       25.01       25.00       25.00    
  32    25.12       25.12       25.12       25.12       25.12       25.12       25.12       25.12       25.11       25.11    
        25.11       25.11       25.10       25.10       25.10       25.09       25.09       25.09       25.08       25.08    
        25.08       25.07       25.07       25.06       25.06       25.06       25.05       25.05       25.04       25.04    
        25.04       25.03       25.03       25.02       25.02       25.02       25.01       25.01       25.00       25.00    
  33    25.11       25.11       25.11       25.11       25.11       25.10       25.10       25.10       25.10       25.10    
        25.10       25.09       25.09       25.09       25.09       25.08       25.08       25.08       25.07       25.07    
        25.07       25.06       25.06       25.06       25.05       25.05       25.04       25.04       25.04       25.03    
        25.03       25.03       25.02       25.02       25.02       25.01       25.01       25.01       25.00       25.00    
  34    25.09       25.09       25.09       25.09       25.09       25.09       25.09       25.09       25.08       25.08    
        25.08       25.08       25.08       25.07       25.07       25.07       25.07       25.06       25.06       25.06    
        25.06       25.05       25.05       25.05       25.04       25.04       25.04       25.04       25.03       25.03    
        25.03       25.02       25.02       25.02       25.01       25.01       25.01       25.01       25.00       25.00    
  35    25.08       25.08       25.08       25.08       25.07       25.07       25.07       25.07       25.07       25.07    
        25.07       25.07       25.06       25.06       25.06       25.06       25.06       25.05       25.05       25.05    
        25.05       25.04       25.04       25.04       25.04       25.03       25.03       25.03       25.03       25.02    
        25.02       25.02       25.02       25.01       25.01       25.01       25.01       25.00       25.00       25.00    
  36    25.06       25.06       25.06       25.06       25.06       25.06       25.06       25.06       25.06       25.06    
        25.05       25.05       25.05       25.05       25.05       25.05       25.04       25.04       25.04       25.04    
        25.04       25.04       25.03       25.03       25.03       25.03       25.03       25.02       25.02       25.02    
        25.02       25.02       25.01       25.01       25.01       25.01       25.01       25.00       25.00       25.00    
  37    25.05       25.05       25.05       25.04       25.04       25.04       25.04       25.04       25.04       25.04    
        25.04       25.04       25.04       25.04       25.04       25.03       25.03       25.03       25.03       25.03    
        25.03       25.03       25.03       25.02       25.02       25.02       25.02       25.02       25.02       25.01    
        25.01       25.01       25.01       25.01       25.01       25.01       25.00       25.00       25.00       25.00    
  38    25.03       25.03       25.03       25.03       25.03       25.03       25.03       25.03       25.03       25.03    
        25.03       25.03       25.03       25.02       25.02       25.02       25.02       25.02       25.02       25.02    
        25.02       25.02       25.02       25.02       25.01       25.01       25.01       25.01       25.01       25.01    
        25.01       25.01       25.01       25.01       25.00       25.00       25.00       25.00       25.00       25.00    
  39    25.02       25.02       25.01       25.01       25.01       25.01       25.01       25.01       25.01       25.01    
        25.01       25.01       25.01       25.01       25.01       25.01       25.01       25.01       25.01       25.01    
        25.01       25.01       25.01       25.01       25.01       25.01       25.01       25.01       25.01       25.00    
        25.00       25.00       25.00       25.00       25.00       25.00       25.00       25.00       25.00       25.00    
  40    25.00       25.00       25.00       25.00       25.00       25.00       25.00       25.00       25.00       25.00    
        25.00       25.00       25.00       25.00       25.00       25.00       25.00       25.00       25.00       25.00    
        25.00       25.00       25.00       25.00       25.00       25.00       25.00       25.00       25.00       25.00    
        25.00       25.00       25.00       25.00       25.00       25.00       25.00       25.00       25.00       25.00    



         TIME SUMMARY AT END OF TIME STEP    1 IN STRESS PERIOD    3
                    SECONDS     MINUTES      HOURS       DAYS        YEARS
                    -----------------------------------------------------------
   TIME STEP LENGTH 9.76828E+06 1.62805E+05  2713.4      113.06     0.30954    
 STRESS PERIOD TIME 9.76828E+06 1.62805E+05  2713.4      113.06     0.30954    
         TOTAL TIME 7.09395E+07 1.18232E+06  19705.      821.06      2.2479    
1
 
 SOLVING FOR HEAD 

 CELL CONVERSIONS FOR ITER.=  2  LAYER=  6  STEP=  2  PERIOD=   3   (ROW,COL)
    WET(  2,  3)   WET(  3,  2)   

 CELL CONVERSIONS FOR ITER.=  2  LAYER=  7  STEP=  2  PERIOD=   3   (ROW,COL)
    WET(  1,  5)   WET(  5,  1)   

 CELL CONVERSIONS FOR ITER.=  2  LAYER=  8  STEP=  2  PERIOD=   3   (ROW,COL)
    WET(  1,  8)   WET(  2,  8)   WET(  4,  7)   WET(  7,  4)   WET(  8,  1)   
    WET(  8,  2)   

 CELL CONVERSIONS FOR ITER.=  2  LAYER=  9  STEP=  2  PERIOD=   3   (ROW,COL)
    WET(  1, 20)   WET(  2, 20)   WET(  3, 20)   WET(  4, 20)   WET(  5, 19)   
    WET(  5, 20)   WET(  6, 19)   WET(  6, 20)   WET(  7, 19)   WET(  8, 18)   
    WET(  8, 19)   WET(  9, 18)   WET(  9, 19)   WET( 10, 17)   WET( 10, 18)   
    WET( 11, 16)   WET( 11, 17)   WET( 11, 18)   WET( 12, 16)   WET( 12, 17)   
    WET( 13, 15)   WET( 13, 16)   WET( 13, 17)   WET( 14, 14)   WET( 14, 15)   
    WET( 14, 16)   WET( 15, 13)   WET( 15, 14)   WET( 15, 15)   WET( 16, 11)   
    WET( 16, 12)   WET( 16, 13)   WET( 16, 14)   WET( 17, 10)   WET( 17, 11)   
    WET( 17, 12)   WET( 17, 13)   WET( 18,  8)   WET( 18,  9)   WET( 18, 10)   
    WET( 18, 11)   WET( 19,  5)   WET( 19,  6)   WET( 19,  7)   WET( 19,  8)   
    WET( 19,  9)   WET( 20,  1)   WET( 20,  2)   WET( 20,  3)   WET( 20,  4)   
    WET( 20,  5)   WET( 20,  6)   
     7 CALLS TO PCG ROUTINE FOR TIME STEP   2 IN STRESS PERIOD    3
    63 TOTAL ITERATIONS

 MAXIMUM HEAD CHANGE FOR EACH ITERATION (1 INDICATES THE FIRST INNER ITERATION):

    HEAD CHANGE    HEAD CHANGE    HEAD CHANGE    HEAD CHANGE    HEAD CHANGE 
   LAYER,ROW,COL  LAYER,ROW,COL  LAYER,ROW,COL  LAYER,ROW,COL  LAYER,ROW,COL
 ---------------------------------------------------------------------------
  1  0.9172      0 -0.1676      0 -0.4167E-01  0 -0.2781E-01  0  0.1482E-01
   (  9,  1,  8)  ( 13,  1,  8)  ( 14,  1, 24)  ( 14,  7,  2)  ( 14,  3, 32)
  0  0.1230E-01  0 -0.6280E-02  0 -0.3678E-02  0 -0.2829E-02  0 -0.1657E-02
   ( 14,  1, 22)  ( 14,  3, 36)  ( 14,  2,  2)  ( 13,  2,  2)  ( 14,  2,  2)
  0  0.7962E-03  0  0.4042E-03  0  0.3023E-03  0  0.1756E-03  0  0.2062E-03
   ( 14, 22,  1)  ( 12,  4, 31)  ( 10, 23, 28)  (  7,  1,  1)  (  8,  1,  1)
  0  0.1353E-03  0 -0.8720E-04  1 -0.4937      0  0.3986      0  0.8085E-01
   (  8,  1,  1)  ( 14, 19, 19)  (  6,  2,  1)  ( 14,  2,  2)  ( 14, 24,  1)
  0  0.4181E-01  0  0.1691E-01  0  0.1413E-01  0  0.8993E-02  0  0.5875E-02
   ( 14,  3,  1)  ( 14, 23,  7)  ( 14, 26,  3)  ( 14,  1, 24)  ( 14, 28, 20)
  0  0.3399E-02  0  0.1202E-02  0  0.8824E-03  0 -0.4590E-03  0 -0.3655E-03
   ( 14, 27, 27)  ( 14, 20, 25)  (  7,  2,  2)  ( 14, 24, 24)  ( 13, 29, 24)
  0 -0.2760E-03  0 -0.1223E-03  0 -0.9372E-04  1 -0.5807E-01  0 -0.2879E-01
   ( 10, 18, 27)  ( 14,  5,  7)  ( 11,  1,  4)  (  6,  2,  2)  ( 14,  1,  1)
  0 -0.1162E-01  0  0.2349E-02  0  0.4506E-02  0  0.1589E-02  0  0.1925E-02
   (  6,  2,  2)  ( 14,  4, 32)  (  8,  2,  2)  (  8,  2,  2)  ( 14,  1,  1)
  0 -0.5044E-03  0 -0.9152E-03  0 -0.1982E-03  0  0.2472E-03  0  0.9814E-04
   (  7,  1,  1)  (  8,  1,  1)  (  6,  1,  1)  ( 14,  1,  1)  ( 14,  1,  1)
  1 -0.8246E-02  0  0.3949E-02  0 -0.7919E-03  0  0.7317E-03  0  0.2435E-03
   (  6,  2,  2)  ( 13,  2,  2)  (  5,  2,  2)  ( 14,  3,  1)  (  8,  2,  2)
  0  0.4863E-03  0  0.1348E-03  0  0.7650E-04  1 -0.1454E-02  0 -0.4306E-03
   (  8,  2,  2)  ( 14,  1,  1)  ( 14,  1,  1)  (  6,  2,  2)  (  5,  2,  2)
  0  0.3777E-03  0  0.1282E-03  0  0.1025E-03  0  0.5775E-04  1 -0.1250E-03
   ( 13,  2,  2)  ( 14,  1,  3)  ( 14,  3,  1)  ( 14,  2,  1)  (  6,  2,  2)
  0 -0.1116E-03  0 -0.6987E-04  1 -0.2181E-04
   (  6,  2,  2)  (  6,  2,  2)  ( 14,  2, 25)

 MAXIMUM RESIDUAL FOR EACH ITERATION (1 INDICATES THE FIRST INNER ITERATION):

    RESIDUAL       RESIDUAL       RESIDUAL       RESIDUAL       RESIDUAL    
   LAYER,ROW,COL  LAYER,ROW,COL  LAYER,ROW,COL  LAYER,ROW,COL  LAYER,ROW,COL
 ---------------------------------------------------------------------------
  1   12.97      0   2.904      0   2.249      0   1.334      0 -0.9976    
   ( 11,  1,  8)  ( 14,  3,  8)  ( 14,  3,  8)  ( 14,  4,  6)  ( 13,  2,  7)
  0  0.4809      0  0.2798      0  0.1928      0  0.1094      0  0.5641E-01
   ( 14,  4,  7)  ( 14,  3,  4)  ( 14,  2,  7)  ( 14,  2,  7)  ( 14,  3,  6)
  0 -0.4353E-01  0 -0.2858E-01  0  0.1653E-01  0  0.1123E-01  0  0.7668E-02
   ( 11,  2,  7)  ( 11,  2,  7)  (  6,  2,  2)  (  9,  2,  7)  (  9,  2,  7)
  0 -0.5945E-02  0  0.2659E-02  1  -39.62      0   8.466      0   4.969    
   (  8,  2,  2)  ( 14,  2,  2)  (  8,  4,  7)  (  9,  4,  7)  (  9,  4,  7)
  0  -3.015      0  -2.083      0  0.6806      0 -0.5811      0 -0.3783    
   (  7,  2,  2)  (  7,  2,  2)  (  8,  1,  5)  ( 10,  4,  7)  ( 10,  4,  7)
  0 -0.3708      0 -0.2855      0 -0.1603      0 -0.1025      0 -0.6492E-01
   (  7,  2,  2)  (  7,  2,  2)  (  7,  2,  2)  (  7,  2,  2)  (  7,  2,  2)
  0 -0.4802E-01  0 -0.3638E-01  0 -0.2153E-01  1   16.20      0   5.567    
   (  7,  2,  2)  (  7,  2,  2)  (  7,  2,  2)  (  6,  2,  2)  (  6,  2,  2)
  0   2.114      0  -1.862      0 -0.9440      0 -0.5186      0  0.1917    
   (  6,  2,  2)  (  8,  2,  2)  (  8,  2,  2)  (  8,  2,  2)  (  7,  2,  3)
  0  0.1353      0  0.8946E-01  0  0.6041E-01  0  0.3960E-01  0  0.2932E-01
   (  7,  2,  3)  (  7,  2,  3)  (  7,  2,  3)  (  9,  2,  2)  (  9,  2,  2)
  1   2.493      0  0.8034      0  0.5156      0 -0.3097      0 -0.2111    
   (  6,  2,  2)  (  6,  2,  2)  (  6,  2,  2)  (  8,  2,  2)  (  8,  2,  2)
  0 -0.6481E-01  0 -0.3690E-01  0  0.2310E-01  1  0.4610      0  0.2845    
   (  6,  2,  3)  (  6,  2,  3)  (  7,  2,  3)  (  6,  2,  2)  (  6,  2,  2)
  0  0.1213      0  0.7422E-01  0  0.4502E-01  0 -0.2533E-01  1  0.1083    
   (  6,  2,  2)  (  6,  2,  2)  (  6,  2,  2)  (  8,  2,  2)  (  6,  2,  2)
  0  0.7887E-01  0  0.4462E-01  1  0.5661E-01
   (  6,  2,  2)  (  6,  2,  2)  (  6,  2,  2)



 OUTPUT CONTROL FOR STRESS PERIOD    3   TIME STEP    2
    SAVE BUDGET
    PRINT HEAD FOR ALL LAYERS
 UBDSV1 SAVING "         STORAGE" ON UNIT  32 AT TIME STEP  2, STRESS PERIOD   3
 UBDSV2 SAVING "   CONSTANT HEAD" ON UNIT  32 AT TIME STEP  2, STRESS PERIOD   3
 UBDSV1 SAVING "FLOW RIGHT FACE " ON UNIT  32 AT TIME STEP  2, STRESS PERIOD   3
 UBDSV1 SAVING "FLOW FRONT FACE " ON UNIT  32 AT TIME STEP  2, STRESS PERIOD   3
 UBDSV1 SAVING "FLOW LOWER FACE " ON UNIT  32 AT TIME STEP  2, STRESS PERIOD   3
 UBDSV3 SAVING "        RECHARGE" ON UNIT  32 AT TIME STEP  2, STRESS PERIOD   3
1
              HEAD IN LAYER   1 AT END OF TIME STEP   2 IN STRESS PERIOD    3
  ---------------------------------------------------------------------------

            1           2           3           4           5           6           7           8           9          10
           11          12          13          14          15          16          17          18          19          20
           21          22          23          24          25          26          27          28          29          30
           31          32          33          34          35          36          37          38          39          40
 ........................................................................................................................
   1   -99.90      -99.90      -99.90      -99.90      -99.90      -99.90      -99.90      -99.90      -99.90      -99.90    
       -99.90      -99.90      -99.90      -99.90      -99.90      -99.90      -99.90      -99.90      -99.90      -99.90    
       -99.90      -99.90      -99.90      -99.90      -99.90      -99.90      -99.90      -99.90      -99.90      -99.90    
       -99.90      -99.90      -99.90      -99.90      -99.90      -99.90      -99.90      -99.90      -99.90      -99.90    
   2   -99.90      -99.90      -99.90      -99.90      -99.90      -99.90      -99.90      -99.90      -99.90      -99.90    
       -99.90      -99.90      -99.90      -99.90      -99.90      -99.90      -99.90      -99.90      -99.90      -99.90    
       -99.90      -99.90      -99.90      -99.90      -99.90      -99.90      -99.90      -99.90      -99.90      -99.90    
       -99.90      -99.90      -99.90      -99.90      -99.90      -99.90      -99.90      -99.90      -99.90      -99.90    
   3   -99.90      -99.90      -99.90      -99.90      -99.90      -99.90      -99.90      -99.90      -99.90      -99.90    
       -99.90      -99.90      -99.90      -99.90      -99.90      -99.90      -99.90      -99.90      -99.90      -99.90    
       -99.90      -99.90      -99.90      -99.90      -99.90      -99.90      -99.90      -99.90      -99.90      -99.90    
       -99.90      -99.90      -99.90      -99.90      -99.90      -99.90      -99.90      -99.90      -99.90      -99.90    
   4   -99.90      -99.90      -99.90      -99.90      -99.90      -99.90      -99.90      -99.90      -99.90      -99.90    
       -99.90      -99.90      -99.90      -99.90      -99.90      -99.90      -99.90      -99.90      -99.90      -99.90    
       -99.90      -99.90      -99.90      -99.90      -99.90      -99.90      -99.90      -99.90      -99.90      -99.90    
       -99.90      -99.90      -99.90      -99.90      -99.90      -99.90      -99.90      -99.90      -99.90      -99.90    
   5   -99.90      -99.90      -99.90      -99.90      -99.90      -99.90      -99.90      -99.90      -99.90      -99.90    
       -99.90      -99.90      -99.90      -99.90      -99.90      -99.90      -99.90      -99.90      -99.90      -99.90    
       -99.90      -99.90      -99.90      -99.90      -99.90      -99.90      -99.90      -99.90      -99.90      -99.90    
       -99.90      -99.90      -99.90      -99.90      -99.90      -99.90      -99.90      -99.90      -99.90      -99.90    
   6   -99.90      -99.90      -99.90      -99.90      -99.90      -99.90      -99.90      -99.90      -99.90      -99.90    
       -99.90      -99.90      -99.90      -99.90      -99.90      -99.90      -99.90      -99.90      -99.90      -99.90    
       -99.90      -99.90      -99.90      -99.90      -99.90      -99.90      -99.90      -99.90      -99.90      -99.90    
       -99.90      -99.90      -99.90      -99.90      -99.90      -99.90      -99.90      -99.90      -99.90      -99.90    
   7   -99.90      -99.90      -99.90      -99.90      -99.90      -99.90      -99.90      -99.90      -99.90      -99.90    
       -99.90      -99.90      -99.90      -99.90      -99.90      -99.90      -99.90      -99.90      -99.90      -99.90    
       -99.90      -99.90      -99.90      -99.90      -99.90      -99.90      -99.90      -99.90      -99.90      -99.90    
       -99.90      -99.90      -99.90      -99.90      -99.90      -99.90      -99.90      -99.90      -99.90      -99.90    
   8   -99.90      -99.90      -99.90      -99.90      -99.90      -99.90      -99.90      -99.90      -99.90      -99.90    
       -99.90      -99.90      -99.90      -99.90      -99.90      -99.90      -99.90      -99.90      -99.90      -99.90    
       -99.90      -99.90      -99.90      -99.90      -99.90      -99.90      -99.90      -99.90      -99.90      -99.90    
       -99.90      -99.90      -99.90      -99.90      -99.90      -99.90      -99.90      -99.90      -99.90      -99.90    
   9   -99.90      -99.90      -99.90      -99.90      -99.90      -99.90      -99.90      -99.90      -99.90      -99.90    
       -99.90      -99.90      -99.90      -99.90      -99.90      -99.90      -99.90      -99.90      -99.90      -99.90    
       -99.90      -99.90      -99.90      -99.90      -99.90      -99.90      -99.90      -99.90      -99.90      -99.90    
       -99.90      -99.90      -99.90      -99.90      -99.90      -99.90      -99.90      -99.90      -99.90      -99.90    
  10   -99.90      -99.90      -99.90      -99.90      -99.90      -99.90      -99.90      -99.90      -99.90      -99.90    
       -99.90      -99.90      -99.90      -99.90      -99.90      -99.90      -99.90      -99.90      -99.90      -99.90    
       -99.90      -99.90      -99.90      -99.90      -99.90      -99.90      -99.90      -99.90      -99.90      -99.90    
       -99.90      -99.90      -99.90      -99.90      -99.90      -99.90      -99.90      -99.90      -99.90      -99.90    
  11   -99.90      -99.90      -99.90      -99.90      -99.90      -99.90      -99.90      -99.90      -99.90      -99.90    
       -99.90      -99.90      -99.90      -99.90      -99.90      -99.90      -99.90      -99.90      -99.90      -99.90    
       -99.90      -99.90      -99.90      -99.90      -99.90      -99.90      -99.90      -99.90      -99.90      -99.90    
       -99.90      -99.90      -99.90      -99.90      -99.90      -99.90      -99.90      -99.90      -99.90      -99.90    
  12   -99.90      -99.90      -99.90      -99.90      -99.90      -99.90      -99.90      -99.90      -99.90      -99.90    
       -99.90      -99.90      -99.90      -99.90      -99.90      -99.90      -99.90      -99.90      -99.90      -99.90    
       -99.90      -99.90      -99.90      -99.90      -99.90      -99.90      -99.90      -99.90      -99.90      -99.90    
       -99.90      -99.90      -99.90      -99.90      -99.90      -99.90      -99.90      -99.90      -99.90      -99.90    
  13   -99.90      -99.90      -99.90      -99.90      -99.90      -99.90      -99.90      -99.90      -99.90      -99.90    
       -99.90      -99.90      -99.90      -99.90      -99.90      -99.90      -99.90      -99.90      -99.90      -99.90    
       -99.90      -99.90      -99.90      -99.90      -99.90      -99.90      -99.90      -99.90      -99.90      -99.90    
       -99.90      -99.90      -99.90      -99.90      -99.90      -99.90      -99.90      -99.90      -99.90      -99.90    
  14   -99.90      -99.90      -99.90      -99.90      -99.90      -99.90      -99.90      -99.90      -99.90      -99.90    
       -99.90      -99.90      -99.90      -99.90      -99.90      -99.90      -99.90      -99.90      -99.90      -99.90    
       -99.90      -99.90      -99.90      -99.90      -99.90      -99.90      -99.90      -99.90      -99.90      -99.90    
       -99.90      -99.90      -99.90      -99.90      -99.90      -99.90      -99.90      -99.90      -99.90      -99.90    
  15   -99.90      -99.90      -99.90      -99.90      -99.90      -99.90      -99.90      -99.90      -99.90      -99.90    
       -99.90      -99.90      -99.90      -99.90      -99.90      -99.90      -99.90      -99.90      -99.90      -99.90    
       -99.90      -99.90      -99.90      -99.90      -99.90      -99.90      -99.90      -99.90      -99.90      -99.90    
       -99.90      -99.90      -99.90      -99.90      -99.90      -99.90      -99.90      -99.90      -99.90      -99.90    
  16   -99.90      -99.90      -99.90      -99.90      -99.90      -99.90      -99.90      -99.90      -99.90      -99.90    
       -99.90      -99.90      -99.90      -99.90      -99.90      -99.90      -99.90      -99.90      -99.90      -99.90    
       -99.90      -99.90      -99.90      -99.90      -99.90      -99.90      -99.90      -99.90      -99.90      -99.90    
       -99.90      -99.90      -99.90      -99.90      -99.90      -99.90      -99.90      -99.90      -99.90      -99.90    
  17   -99.90      -99.90      -99.90      -99.90      -99.90      -99.90      -99.90      -99.90      -99.90      -99.90    
       -99.90      -99.90      -99.90      -99.90      -99.90      -99.90      -99.90      -99.90      -99.90      -99.90    
       -99.90      -99.90      -99.90      -99.90      -99.90      -99.90      -99.90      -99.90      -99.90      -99.90    
       -99.90      -99.90      -99.90      -99.90      -99.90      -99.90      -99.90      -99.90      -99.90      -99.90    
  18   -99.90      -99.90      -99.90      -99.90      -99.90      -99.90      -99.90      -99.90      -99.90      -99.90    
       -99.90      -99.90      -99.90      -99.90      -99.90      -99.90      -99.90      -99.90      -99.90      -99.90    
       -99.90      -99.90      -99.90      -99.90      -99.90      -99.90      -99.90      -99.90      -99.90      -99.90    
       -99.90      -99.90      -99.90      -99.90      -99.90      -99.90      -99.90      -99.90      -99.90      -99.90    
  19   -99.90      -99.90      -99.90      -99.90      -99.90      -99.90      -99.90      -99.90      -99.90      -99.90    
       -99.90      -99.90      -99.90      -99.90      -99.90      -99.90      -99.90      -99.90      -99.90      -99.90    
       -99.90      -99.90      -99.90      -99.90      -99.90      -99.90      -99.90      -99.90      -99.90      -99.90    
       -99.90      -99.90      -99.90      -99.90      -99.90      -99.90      -99.90      -99.90      -99.90      -99.90    
  20   -99.90      -99.90      -99.90      -99.90      -99.90      -99.90      -99.90      -99.90      -99.90      -99.90    
       -99.90      -99.90      -99.90      -99.90      -99.90      -99.90      -99.90      -99.90      -99.90      -99.90    
       -99.90      -99.90      -99.90      -99.90      -99.90      -99.90      -99.90      -99.90      -99.90      -99.90    
       -99.90      -99.90      -99.90      -99.90      -99.90      -99.90      -99.90      -99.90      -99.90      -99.90    
  21   -99.90      -99.90      -99.90      -99.90      -99.90      -99.90      -99.90      -99.90      -99.90      -99.90    
       -99.90      -99.90      -99.90      -99.90      -99.90      -99.90      -99.90      -99.90      -99.90      -99.90    
       -99.90      -99.90      -99.90      -99.90      -99.90      -99.90      -99.90      -99.90      -99.90      -99.90    
       -99.90      -99.90      -99.90      -99.90      -99.90      -99.90      -99.90      -99.90      -99.90      -99.90    
  22   -99.90      -99.90      -99.90      -99.90      -99.90      -99.90      -99.90      -99.90      -99.90      -99.90    
       -99.90      -99.90      -99.90      -99.90      -99.90      -99.90      -99.90      -99.90      -99.90      -99.90    
       -99.90      -99.90      -99.90      -99.90      -99.90      -99.90      -99.90      -99.90      -99.90      -99.90    
       -99.90      -99.90      -99.90      -99.90      -99.90      -99.90      -99.90      -99.90      -99.90      -99.90    
  23   -99.90      -99.90      -99.90      -99.90      -99.90      -99.90      -99.90      -99.90      -99.90      -99.90    
       -99.90      -99.90      -99.90      -99.90      -99.90      -99.90      -99.90      -99.90      -99.90      -99.90    
       -99.90      -99.90      -99.90      -99.90      -99.90      -99.90      -99.90      -99.90      -99.90      -99.90    
       -99.90      -99.90      -99.90      -99.90      -99.90      -99.90      -99.90      -99.90      -99.90      -99.90    
  24   -99.90      -99.90      -99.90      -99.90      -99.90      -99.90      -99.90      -99.90      -99.90      -99.90    
       -99.90      -99.90      -99.90      -99.90      -99.90      -99.90      -99.90      -99.90      -99.90      -99.90    
       -99.90      -99.90      -99.90      -99.90      -99.90      -99.90      -99.90      -99.90      -99.90      -99.90    
       -99.90      -99.90      -99.90      -99.90      -99.90      -99.90      -99.90      -99.90      -99.90      -99.90    
  25   -99.90      -99.90      -99.90      -99.90      -99.90      -99.90      -99.90      -99.90      -99.90      -99.90    
       -99.90      -99.90      -99.90      -99.90      -99.90      -99.90      -99.90      -99.90      -99.90      -99.90    
       -99.90      -99.90      -99.90      -99.90      -99.90      -99.90      -99.90      -99.90      -99.90      -99.90    
       -99.90      -99.90      -99.90      -99.90      -99.90      -99.90      -99.90      -99.90      -99.90      -99.90    
  26   -99.90      -99.90      -99.90      -99.90      -99.90      -99.90      -99.90      -99.90      -99.90      -99.90    
       -99.90      -99.90      -99.90      -99.90      -99.90      -99.90      -99.90      -99.90      -99.90      -99.90    
       -99.90      -99.90      -99.90      -99.90      -99.90      -99.90      -99.90      -99.90      -99.90      -99.90    
       -99.90      -99.90      -99.90      -99.90      -99.90      -99.90      -99.90      -99.90      -99.90      -99.90    
  27   -99.90      -99.90      -99.90      -99.90      -99.90      -99.90      -99.90      -99.90      -99.90      -99.90    
       -99.90      -99.90      -99.90      -99.90      -99.90      -99.90      -99.90      -99.90      -99.90      -99.90    
       -99.90      -99.90      -99.90      -99.90      -99.90      -99.90      -99.90      -99.90      -99.90      -99.90    
       -99.90      -99.90      -99.90      -99.90      -99.90      -99.90      -99.90      -99.90      -99.90      -99.90    
  28   -99.90      -99.90      -99.90      -99.90      -99.90      -99.90      -99.90      -99.90      -99.90      -99.90    
       -99.90      -99.90      -99.90      -99.90      -99.90      -99.90      -99.90      -99.90      -99.90      -99.90    
       -99.90      -99.90      -99.90      -99.90      -99.90      -99.90      -99.90      -99.90      -99.90      -99.90    
       -99.90      -99.90      -99.90      -99.90      -99.90      -99.90      -99.90      -99.90      -99.90      -99.90    
  29   -99.90      -99.90      -99.90      -99.90      -99.90      -99.90      -99.90      -99.90      -99.90      -99.90    
       -99.90      -99.90      -99.90      -99.90      -99.90      -99.90      -99.90      -99.90      -99.90      -99.90    
       -99.90      -99.90      -99.90      -99.90      -99.90      -99.90      -99.90      -99.90      -99.90      -99.90    
       -99.90      -99.90      -99.90      -99.90      -99.90      -99.90      -99.90      -99.90      -99.90      -99.90    
  30   -99.90      -99.90      -99.90      -99.90      -99.90      -99.90      -99.90      -99.90      -99.90      -99.90    
       -99.90      -99.90      -99.90      -99.90      -99.90      -99.90      -99.90      -99.90      -99.90      -99.90    
       -99.90      -99.90      -99.90      -99.90      -99.90      -99.90      -99.90      -99.90      -99.90      -99.90    
       -99.90      -99.90      -99.90      -99.90      -99.90      -99.90      -99.90      -99.90      -99.90      -99.90    
  31   -99.90      -99.90      -99.90      -99.90      -99.90      -99.90      -99.90      -99.90      -99.90      -99.90    
       -99.90      -99.90      -99.90      -99.90      -99.90      -99.90      -99.90      -99.90      -99.90      -99.90    
       -99.90      -99.90      -99.90      -99.90      -99.90      -99.90      -99.90      -99.90      -99.90      -99.90    
       -99.90      -99.90      -99.90      -99.90      -99.90      -99.90      -99.90      -99.90      -99.90      -99.90    
  32   -99.90      -99.90      -99.90      -99.90      -99.90      -99.90      -99.90      -99.90      -99.90      -99.90    
       -99.90      -99.90      -99.90      -99.90      -99.90      -99.90      -99.90      -99.90      -99.90      -99.90    
       -99.90      -99.90      -99.90      -99.90      -99.90      -99.90      -99.90      -99.90      -99.90      -99.90    
       -99.90      -99.90      -99.90      -99.90      -99.90      -99.90      -99.90      -99.90      -99.90      -99.90    
  33   -99.90      -99.90      -99.90      -99.90      -99.90      -99.90      -99.90      -99.90      -99.90      -99.90    
       -99.90      -99.90      -99.90      -99.90      -99.90      -99.90      -99.90      -99.90      -99.90      -99.90    
       -99.90      -99.90      -99.90      -99.90      -99.90      -99.90      -99.90      -99.90      -99.90      -99.90    
       -99.90      -99.90      -99.90      -99.90      -99.90      -99.90      -99.90      -99.90      -99.90      -99.90    
  34   -99.90      -99.90      -99.90      -99.90      -99.90      -99.90      -99.90      -99.90      -99.90      -99.90    
       -99.90      -99.90      -99.90      -99.90      -99.90      -99.90      -99.90      -99.90      -99.90      -99.90    
       -99.90      -99.90      -99.90      -99.90      -99.90      -99.90      -99.90      -99.90      -99.90      -99.90    
       -99.90      -99.90      -99.90      -99.90      -99.90      -99.90      -99.90      -99.90      -99.90      -99.90    
  35   -99.90      -99.90      -99.90      -99.90      -99.90      -99.90      -99.90      -99.90      -99.90      -99.90    
       -99.90      -99.90      -99.90      -99.90      -99.90      -99.90      -99.90      -99.90      -99.90      -99.90    
       -99.90      -99.90      -99.90      -99.90      -99.90      -99.90      -99.90      -99.90      -99.90      -99.90    
       -99.90      -99.90      -99.90      -99.90      -99.90      -99.90      -99.90      -99.90      -99.90      -99.90    
  36   -99.90      -99.90      -99.90      -99.90      -99.90      -99.90      -99.90      -99.90      -99.90      -99.90    
       -99.90      -99.90      -99.90      -99.90      -99.90      -99.90      -99.90      -99.90      -99.90      -99.90    
       -99.90      -99.90      -99.90      -99.90      -99.90      -99.90      -99.90      -99.90      -99.90      -99.90    
       -99.90      -99.90      -99.90      -99.90      -99.90      -99.90      -99.90      -99.90      -99.90      -99.90    
  37   -99.90      -99.90      -99.90      -99.90      -99.90      -99.90      -99.90      -99.90      -99.90      -99.90    
       -99.90      -99.90      -99.90      -99.90      -99.90      -99.90      -99.90      -99.90      -99.90      -99.90    
       -99.90      -99.90      -99.90      -99.90      -99.90      -99.90      -99.90      -99.90      -99.90      -99.90    
       -99.90      -99.90      -99.90      -99.90      -99.90      -99.90      -99.90      -99.90      -99.90      -99.90    
  38   -99.90      -99.90      -99.90      -99.90      -99.90      -99.90      -99.90      -99.90      -99.90      -99.90    
       -99.90      -99.90      -99.90      -99.90      -99.90      -99.90      -99.90      -99.90      -99.90      -99.90    
       -99.90      -99.90      -99.90      -99.90      -99.90      -99.90      -99.90      -99.90      -99.90      -99.90    
       -99.90      -99.90      -99.90      -99.90      -99.90      -99.90      -99.90      -99.90      -99.90      -99.90    
  39   -99.90      -99.90      -99.90      -99.90      -99.90      -99.90      -99.90      -99.90      -99.90      -99.90    
       -99.90      -99.90      -99.90      -99.90      -99.90      -99.90      -99.90      -99.90      -99.90      -99.90    
       -99.90      -99.90      -99.90      -99.90      -99.90      -99.90      -99.90      -99.90      -99.90      -99.90    
       -99.90      -99.90      -99.90      -99.90      -99.90      -99.90      -99.90      -99.90      -99.90      -99.90    
  40   -99.90      -99.90      -99.90      -99.90      -99.90      -99.90      -99.90      -99.90      -99.90      -99.90    
       -99.90      -99.90      -99.90      -99.90      -99.90      -99.90      -99.90      -99.90      -99.90      -99.90    
       -99.90      -99.90      -99.90      -99.90      -99.90      -99.90      -99.90      -99.90      -99.90      -99.90    
       -99.90      -99.90      -99.90      -99.90      -99.90      -99.90      -99.90      -99.90      -99.90      -99.90    
1
              HEAD IN LAYER   2 AT END OF TIME STEP   2 IN STRESS PERIOD    3
  ---------------------------------------------------------------------------

            1           2           3           4           5           6           7           8           9          10
           11          12          13          14          15          16          17          18          19          20
           21          22          23          24          25          26          27          28          29          30
           31          32          33          34          35          36          37          38          39          40
 ........................................................................................................................
   1   -99.90      -99.90      -99.90      -99.90      -99.90      -99.90      -99.90      -99.90      -99.90      -99.90    
       -99.90      -99.90      -99.90      -99.90      -99.90      -99.90      -99.90      -99.90      -99.90      -99.90    
       -99.90      -99.90      -99.90      -99.90      -99.90      -99.90      -99.90      -99.90      -99.90      -99.90    
       -99.90      -99.90      -99.90      -99.90      -99.90      -99.90      -99.90      -99.90      -99.90      -99.90    
   2   -99.90      -99.90      -99.90      -99.90      -99.90      -99.90      -99.90      -99.90      -99.90      -99.90    
       -99.90      -99.90      -99.90      -99.90      -99.90      -99.90      -99.90      -99.90      -99.90      -99.90    
       -99.90      -99.90      -99.90      -99.90      -99.90      -99.90      -99.90      -99.90      -99.90      -99.90    
       -99.90      -99.90      -99.90      -99.90      -99.90      -99.90      -99.90      -99.90      -99.90      -99.90    
   3   -99.90      -99.90      -99.90      -99.90      -99.90      -99.90      -99.90      -99.90      -99.90      -99.90    
       -99.90      -99.90      -99.90      -99.90      -99.90      -99.90      -99.90      -99.90      -99.90      -99.90    
       -99.90      -99.90      -99.90      -99.90      -99.90      -99.90      -99.90      -99.90      -99.90      -99.90    
       -99.90      -99.90      -99.90      -99.90      -99.90      -99.90      -99.90      -99.90      -99.90      -99.90    
   4   -99.90      -99.90      -99.90      -99.90      -99.90      -99.90      -99.90      -99.90      -99.90      -99.90    
       -99.90      -99.90      -99.90      -99.90      -99.90      -99.90      -99.90      -99.90      -99.90      -99.90    
       -99.90      -99.90      -99.90      -99.90      -99.90      -99.90      -99.90      -99.90      -99.90      -99.90    
       -99.90      -99.90      -99.90      -99.90      -99.90      -99.90      -99.90      -99.90      -99.90      -99.90    
   5   -99.90      -99.90      -99.90      -99.90      -99.90      -99.90      -99.90      -99.90      -99.90      -99.90    
       -99.90      -99.90      -99.90      -99.90      -99.90      -99.90      -99.90      -99.90      -99.90      -99.90    
       -99.90      -99.90      -99.90      -99.90      -99.90      -99.90      -99.90      -99.90      -99.90      -99.90    
       -99.90      -99.90      -99.90      -99.90      -99.90      -99.90      -99.90      -99.90      -99.90      -99.90    
   6   -99.90      -99.90      -99.90      -99.90      -99.90      -99.90      -99.90      -99.90      -99.90      -99.90    
       -99.90      -99.90      -99.90      -99.90      -99.90      -99.90      -99.90      -99.90      -99.90      -99.90    
       -99.90      -99.90      -99.90      -99.90      -99.90      -99.90      -99.90      -99.90      -99.90      -99.90    
       -99.90      -99.90      -99.90      -99.90      -99.90      -99.90      -99.90      -99.90      -99.90      -99.90    
   7   -99.90      -99.90      -99.90      -99.90      -99.90      -99.90      -99.90      -99.90      -99.90      -99.90    
       -99.90      -99.90      -99.90      -99.90      -99.90      -99.90      -99.90      -99.90      -99.90      -99.90    
       -99.90      -99.90      -99.90      -99.90      -99.90      -99.90      -99.90      -99.90      -99.90      -99.90    
       -99.90      -99.90      -99.90      -99.90      -99.90      -99.90      -99.90      -99.90      -99.90      -99.90    
   8   -99.90      -99.90      -99.90      -99.90      -99.90      -99.90      -99.90      -99.90      -99.90      -99.90    
       -99.90      -99.90      -99.90      -99.90      -99.90      -99.90      -99.90      -99.90      -99.90      -99.90    
       -99.90      -99.90      -99.90      -99.90      -99.90      -99.90      -99.90      -99.90      -99.90      -99.90    
       -99.90      -99.90      -99.90      -99.90      -99.90      -99.90      -99.90      -99.90      -99.90      -99.90    
   9   -99.90      -99.90      -99.90      -99.90      -99.90      -99.90      -99.90      -99.90      -99.90      -99.90    
       -99.90      -99.90      -99.90      -99.90      -99.90      -99.90      -99.90      -99.90      -99.90      -99.90    
       -99.90      -99.90      -99.90      -99.90      -99.90      -99.90      -99.90      -99.90      -99.90      -99.90    
       -99.90      -99.90      -99.90      -99.90      -99.90      -99.90      -99.90      -99.90      -99.90      -99.90    
  10   -99.90      -99.90      -99.90      -99.90      -99.90      -99.90      -99.90      -99.90      -99.90      -99.90    
       -99.90      -99.90      -99.90      -99.90      -99.90      -99.90      -99.90      -99.90      -99.90      -99.90    
       -99.90      -99.90      -99.90      -99.90      -99.90      -99.90      -99.90      -99.90      -99.90      -99.90    
       -99.90      -99.90      -99.90      -99.90      -99.90      -99.90      -99.90      -99.90      -99.90      -99.90    
  11   -99.90      -99.90      -99.90      -99.90      -99.90      -99.90      -99.90      -99.90      -99.90      -99.90    
       -99.90      -99.90      -99.90      -99.90      -99.90      -99.90      -99.90      -99.90      -99.90      -99.90    
       -99.90      -99.90      -99.90      -99.90      -99.90      -99.90      -99.90      -99.90      -99.90      -99.90    
       -99.90      -99.90      -99.90      -99.90      -99.90      -99.90      -99.90      -99.90      -99.90      -99.90    
  12   -99.90      -99.90      -99.90      -99.90      -99.90      -99.90      -99.90      -99.90      -99.90      -99.90    
       -99.90      -99.90      -99.90      -99.90      -99.90      -99.90      -99.90      -99.90      -99.90      -99.90    
       -99.90      -99.90      -99.90      -99.90      -99.90      -99.90      -99.90      -99.90      -99.90      -99.90    
       -99.90      -99.90      -99.90      -99.90      -99.90      -99.90      -99.90      -99.90      -99.90      -99.90    
  13   -99.90      -99.90      -99.90      -99.90      -99.90      -99.90      -99.90      -99.90      -99.90      -99.90    
       -99.90      -99.90      -99.90      -99.90      -99.90      -99.90      -99.90      -99.90      -99.90      -99.90    
       -99.90      -99.90      -99.90      -99.90      -99.90      -99.90      -99.90      -99.90      -99.90      -99.90    
       -99.90      -99.90      -99.90      -99.90      -99.90      -99.90      -99.90      -99.90      -99.90      -99.90    
  14   -99.90      -99.90      -99.90      -99.90      -99.90      -99.90      -99.90      -99.90      -99.90      -99.90    
       -99.90      -99.90      -99.90      -99.90      -99.90      -99.90      -99.90      -99.90      -99.90      -99.90    
       -99.90      -99.90      -99.90      -99.90      -99.90      -99.90      -99.90      -99.90      -99.90      -99.90    
       -99.90      -99.90      -99.90      -99.90      -99.90      -99.90      -99.90      -99.90      -99.90      -99.90    
  15   -99.90      -99.90      -99.90      -99.90      -99.90      -99.90      -99.90      -99.90      -99.90      -99.90    
       -99.90      -99.90      -99.90      -99.90      -99.90      -99.90      -99.90      -99.90      -99.90      -99.90    
       -99.90      -99.90      -99.90      -99.90      -99.90      -99.90      -99.90      -99.90      -99.90      -99.90    
       -99.90      -99.90      -99.90      -99.90      -99.90      -99.90      -99.90      -99.90      -99.90      -99.90    
  16   -99.90      -99.90      -99.90      -99.90      -99.90      -99.90      -99.90      -99.90      -99.90      -99.90    
       -99.90      -99.90      -99.90      -99.90      -99.90      -99.90      -99.90      -99.90      -99.90      -99.90    
       -99.90      -99.90      -99.90      -99.90      -99.90      -99.90      -99.90      -99.90      -99.90      -99.90    
       -99.90      -99.90      -99.90      -99.90      -99.90      -99.90      -99.90      -99.90      -99.90      -99.90    
  17   -99.90      -99.90      -99.90      -99.90      -99.90      -99.90      -99.90      -99.90      -99.90      -99.90    
       -99.90      -99.90      -99.90      -99.90      -99.90      -99.90      -99.90      -99.90      -99.90      -99.90    
       -99.90      -99.90      -99.90      -99.90      -99.90      -99.90      -99.90      -99.90      -99.90      -99.90    
       -99.90      -99.90      -99.90      -99.90      -99.90      -99.90      -99.90      -99.90      -99.90      -99.90    
  18   -99.90      -99.90      -99.90      -99.90      -99.90      -99.90      -99.90      -99.90      -99.90      -99.90    
       -99.90      -99.90      -99.90      -99.90      -99.90      -99.90      -99.90      -99.90      -99.90      -99.90    
       -99.90      -99.90      -99.90      -99.90      -99.90      -99.90      -99.90      -99.90      -99.90      -99.90    
       -99.90      -99.90      -99.90      -99.90      -99.90      -99.90      -99.90      -99.90      -99.90      -99.90    
  19   -99.90      -99.90      -99.90      -99.90      -99.90      -99.90      -99.90      -99.90      -99.90      -99.90    
       -99.90      -99.90      -99.90      -99.90      -99.90      -99.90      -99.90      -99.90      -99.90      -99.90    
       -99.90      -99.90      -99.90      -99.90      -99.90      -99.90      -99.90      -99.90      -99.90      -99.90    
       -99.90      -99.90      -99.90      -99.90      -99.90      -99.90      -99.90      -99.90      -99.90      -99.90    
  20   -99.90      -99.90      -99.90      -99.90      -99.90      -99.90      -99.90      -99.90      -99.90      -99.90    
       -99.90      -99.90      -99.90      -99.90      -99.90      -99.90      -99.90      -99.90      -99.90      -99.90    
       -99.90      -99.90      -99.90      -99.90      -99.90      -99.90      -99.90      -99.90      -99.90      -99.90    
       -99.90      -99.90      -99.90      -99.90      -99.90      -99.90      -99.90      -99.90      -99.90      -99.90    
  21   -99.90      -99.90      -99.90      -99.90      -99.90      -99.90      -99.90      -99.90      -99.90      -99.90    
       -99.90      -99.90      -99.90      -99.90      -99.90      -99.90      -99.90      -99.90      -99.90      -99.90    
       -99.90      -99.90      -99.90      -99.90      -99.90      -99.90      -99.90      -99.90      -99.90      -99.90    
       -99.90      -99.90      -99.90      -99.90      -99.90      -99.90      -99.90      -99.90      -99.90      -99.90    
  22   -99.90      -99.90      -99.90      -99.90      -99.90      -99.90      -99.90      -99.90      -99.90      -99.90    
       -99.90      -99.90      -99.90      -99.90      -99.90      -99.90      -99.90      -99.90      -99.90      -99.90    
       -99.90      -99.90      -99.90      -99.90      -99.90      -99.90      -99.90      -99.90      -99.90      -99.90    
       -99.90      -99.90      -99.90      -99.90      -99.90      -99.90      -99.90      -99.90      -99.90      -99.90    
  23   -99.90      -99.90      -99.90      -99.90      -99.90      -99.90      -99.90      -99.90      -99.90      -99.90    
       -99.90      -99.90      -99.90      -99.90      -99.90      -99.90      -99.90      -99.90      -99.90      -99.90    
       -99.90      -99.90      -99.90      -99.90      -99.90      -99.90      -99.90      -99.90      -99.90      -99.90    
       -99.90      -99.90      -99.90      -99.90      -99.90      -99.90      -99.90      -99.90      -99.90      -99.90    
  24   -99.90      -99.90      -99.90      -99.90      -99.90      -99.90      -99.90      -99.90      -99.90      -99.90    
       -99.90      -99.90      -99.90      -99.90      -99.90      -99.90      -99.90      -99.90      -99.90      -99.90    
       -99.90      -99.90      -99.90      -99.90      -99.90      -99.90      -99.90      -99.90      -99.90      -99.90    
       -99.90      -99.90      -99.90      -99.90      -99.90      -99.90      -99.90      -99.90      -99.90      -99.90    
  25   -99.90      -99.90      -99.90      -99.90      -99.90      -99.90      -99.90      -99.90      -99.90      -99.90    
       -99.90      -99.90      -99.90      -99.90      -99.90      -99.90      -99.90      -99.90      -99.90      -99.90    
       -99.90      -99.90      -99.90      -99.90      -99.90      -99.90      -99.90      -99.90      -99.90      -99.90    
       -99.90      -99.90      -99.90      -99.90      -99.90      -99.90      -99.90      -99.90      -99.90      -99.90    
  26   -99.90      -99.90      -99.90      -99.90      -99.90      -99.90      -99.90      -99.90      -99.90      -99.90    
       -99.90      -99.90      -99.90      -99.90      -99.90      -99.90      -99.90      -99.90      -99.90      -99.90    
       -99.90      -99.90      -99.90      -99.90      -99.90      -99.90      -99.90      -99.90      -99.90      -99.90    
       -99.90      -99.90      -99.90      -99.90      -99.90      -99.90      -99.90      -99.90      -99.90      -99.90    
  27   -99.90      -99.90      -99.90      -99.90      -99.90      -99.90      -99.90      -99.90      -99.90      -99.90    
       -99.90      -99.90      -99.90      -99.90      -99.90      -99.90      -99.90      -99.90      -99.90      -99.90    
       -99.90      -99.90      -99.90      -99.90      -99.90      -99.90      -99.90      -99.90      -99.90      -99.90    
       -99.90      -99.90      -99.90      -99.90      -99.90      -99.90      -99.90      -99.90      -99.90      -99.90    
  28   -99.90      -99.90      -99.90      -99.90      -99.90      -99.90      -99.90      -99.90      -99.90      -99.90    
       -99.90      -99.90      -99.90      -99.90      -99.90      -99.90      -99.90      -99.90      -99.90      -99.90    
       -99.90      -99.90      -99.90      -99.90      -99.90      -99.90      -99.90      -99.90      -99.90      -99.90    
       -99.90      -99.90      -99.90      -99.90      -99.90      -99.90      -99.90      -99.90      -99.90      -99.90    
  29   -99.90      -99.90      -99.90      -99.90      -99.90      -99.90      -99.90      -99.90      -99.90      -99.90    
       -99.90      -99.90      -99.90      -99.90      -99.90      -99.90      -99.90      -99.90      -99.90      -99.90    
       -99.90      -99.90      -99.90      -99.90      -99.90      -99.90      -99.90      -99.90      -99.90      -99.90    
       -99.90      -99.90      -99.90      -99.90      -99.90      -99.90      -99.90      -99.90      -99.90      -99.90    
  30   -99.90      -99.90      -99.90      -99.90      -99.90      -99.90      -99.90      -99.90      -99.90      -99.90    
       -99.90      -99.90      -99.90      -99.90      -99.90      -99.90      -99.90      -99.90      -99.90      -99.90    
       -99.90      -99.90      -99.90      -99.90      -99.90      -99.90      -99.90      -99.90      -99.90      -99.90    
       -99.90      -99.90      -99.90      -99.90      -99.90      -99.90      -99.90      -99.90      -99.90      -99.90    
  31   -99.90      -99.90      -99.90      -99.90      -99.90      -99.90      -99.90      -99.90      -99.90      -99.90    
       -99.90      -99.90      -99.90      -99.90      -99.90      -99.90      -99.90      -99.90      -99.90      -99.90    
       -99.90      -99.90      -99.90      -99.90      -99.90      -99.90      -99.90      -99.90      -99.90      -99.90    
       -99.90      -99.90      -99.90      -99.90      -99.90      -99.90      -99.90      -99.90      -99.90      -99.90    
  32   -99.90      -99.90      -99.90      -99.90      -99.90      -99.90      -99.90      -99.90      -99.90      -99.90    
       -99.90      -99.90      -99.90      -99.90      -99.90      -99.90      -99.90      -99.90      -99.90      -99.90    
       -99.90      -99.90      -99.90      -99.90      -99.90      -99.90      -99.90      -99.90      -99.90      -99.90    
       -99.90      -99.90      -99.90      -99.90      -99.90      -99.90      -99.90      -99.90      -99.90      -99.90    
  33   -99.90      -99.90      -99.90      -99.90      -99.90      -99.90      -99.90      -99.90      -99.90      -99.90    
       -99.90      -99.90      -99.90      -99.90      -99.90      -99.90      -99.90      -99.90      -99.90      -99.90    
       -99.90      -99.90      -99.90      -99.90      -99.90      -99.90      -99.90      -99.90      -99.90      -99.90    
       -99.90      -99.90      -99.90      -99.90      -99.90      -99.90      -99.90      -99.90      -99.90      -99.90    
  34   -99.90      -99.90      -99.90      -99.90      -99.90      -99.90      -99.90      -99.90      -99.90      -99.90    
       -99.90      -99.90      -99.90      -99.90      -99.90      -99.90      -99.90      -99.90      -99.90      -99.90    
       -99.90      -99.90      -99.90      -99.90      -99.90      -99.90      -99.90      -99.90      -99.90      -99.90    
       -99.90      -99.90      -99.90      -99.90      -99.90      -99.90      -99.90      -99.90      -99.90      -99.90    
  35   -99.90      -99.90      -99.90      -99.90      -99.90      -99.90      -99.90      -99.90      -99.90      -99.90    
       -99.90      -99.90      -99.90      -99.90      -99.90      -99.90      -99.90      -99.90      -99.90      -99.90    
       -99.90      -99.90      -99.90      -99.90      -99.90      -99.90      -99.90      -99.90      -99.90      -99.90    
       -99.90      -99.90      -99.90      -99.90      -99.90      -99.90      -99.90      -99.90      -99.90      -99.90    
  36   -99.90      -99.90      -99.90      -99.90      -99.90      -99.90      -99.90      -99.90      -99.90      -99.90    
       -99.90      -99.90      -99.90      -99.90      -99.90      -99.90      -99.90      -99.90      -99.90      -99.90    
       -99.90      -99.90      -99.90      -99.90      -99.90      -99.90      -99.90      -99.90      -99.90      -99.90    
       -99.90      -99.90      -99.90      -99.90      -99.90      -99.90      -99.90      -99.90      -99.90      -99.90    
  37   -99.90      -99.90      -99.90      -99.90      -99.90      -99.90      -99.90      -99.90      -99.90      -99.90    
       -99.90      -99.90      -99.90      -99.90      -99.90      -99.90      -99.90      -99.90      -99.90      -99.90    
       -99.90      -99.90      -99.90      -99.90      -99.90      -99.90      -99.90      -99.90      -99.90      -99.90    
       -99.90      -99.90      -99.90      -99.90      -99.90      -99.90      -99.90      -99.90      -99.90      -99.90    
  38   -99.90      -99.90      -99.90      -99.90      -99.90      -99.90      -99.90      -99.90      -99.90      -99.90    
       -99.90      -99.90      -99.90      -99.90      -99.90      -99.90      -99.90      -99.90      -99.90      -99.90    
       -99.90      -99.90      -99.90      -99.90      -99.90      -99.90      -99.90      -99.90      -99.90      -99.90    
       -99.90      -99.90      -99.90      -99.90      -99.90      -99.90      -99.90      -99.90      -99.90      -99.90    
  39   -99.90      -99.90      -99.90      -99.90      -99.90      -99.90      -99.90      -99.90      -99.90      -99.90    
       -99.90      -99.90      -99.90      -99.90      -99.90      -99.90      -99.90      -99.90      -99.90      -99.90    
       -99.90      -99.90      -99.90      -99.90      -99.90      -99.90      -99.90      -99.90      -99.90      -99.90    
       -99.90      -99.90      -99.90      -99.90      -99.90      -99.90      -99.90      -99.90      -99.90      -99.90    
  40   -99.90      -99.90      -99.90      -99.90      -99.90      -99.90      -99.90      -99.90      -99.90      -99.90    
       -99.90      -99.90      -99.90      -99.90      -99.90      -99.90      -99.90      -99.90      -99.90      -99.90    
       -99.90      -99.90      -99.90      -99.90      -99.90      -99.90      -99.90      -99.90      -99.90      -99.90    
       -99.90      -99.90      -99.90      -99.90      -99.90      -99.90      -99.90      -99.90      -99.90      -99.90    
1
              HEAD IN LAYER   3 AT END OF TIME STEP   2 IN STRESS PERIOD    3
  ---------------------------------------------------------------------------

            1           2           3           4           5           6           7           8           9          10
           11          12          13          14          15          16          17          18          19          20
           21          22          23          24          25          26          27          28          29          30
           31          32          33          34          35          36          37          38          39          40
 ........................................................................................................................
   1   -99.90      -99.90      -99.90      -99.90      -99.90      -99.90      -99.90      -99.90      -99.90      -99.90    
       -99.90      -99.90      -99.90      -99.90      -99.90      -99.90      -99.90      -99.90      -99.90      -99.90    
       -99.90      -99.90      -99.90      -99.90      -99.90      -99.90      -99.90      -99.90      -99.90      -99.90    
       -99.90      -99.90      -99.90      -99.90      -99.90      -99.90      -99.90      -99.90      -99.90      -99.90    
   2   -99.90      -99.90      -99.90      -99.90      -99.90      -99.90      -99.90      -99.90      -99.90      -99.90    
       -99.90      -99.90      -99.90      -99.90      -99.90      -99.90      -99.90      -99.90      -99.90      -99.90    
       -99.90      -99.90      -99.90      -99.90      -99.90      -99.90      -99.90      -99.90      -99.90      -99.90    
       -99.90      -99.90      -99.90      -99.90      -99.90      -99.90      -99.90      -99.90      -99.90      -99.90    
   3   -99.90      -99.90      -99.90      -99.90      -99.90      -99.90      -99.90      -99.90      -99.90      -99.90    
       -99.90      -99.90      -99.90      -99.90      -99.90      -99.90      -99.90      -99.90      -99.90      -99.90    
       -99.90      -99.90      -99.90      -99.90      -99.90      -99.90      -99.90      -99.90      -99.90      -99.90    
       -99.90      -99.90      -99.90      -99.90      -99.90      -99.90      -99.90      -99.90      -99.90      -99.90    
   4   -99.90      -99.90      -99.90      -99.90      -99.90      -99.90      -99.90      -99.90      -99.90      -99.90    
       -99.90      -99.90      -99.90      -99.90      -99.90      -99.90      -99.90      -99.90      -99.90      -99.90    
       -99.90      -99.90      -99.90      -99.90      -99.90      -99.90      -99.90      -99.90      -99.90      -99.90    
       -99.90      -99.90      -99.90      -99.90      -99.90      -99.90      -99.90      -99.90      -99.90      -99.90    
   5   -99.90      -99.90      -99.90      -99.90      -99.90      -99.90      -99.90      -99.90      -99.90      -99.90    
       -99.90      -99.90      -99.90      -99.90      -99.90      -99.90      -99.90      -99.90      -99.90      -99.90    
       -99.90      -99.90      -99.90      -99.90      -99.90      -99.90      -99.90      -99.90      -99.90      -99.90    
       -99.90      -99.90      -99.90      -99.90      -99.90      -99.90      -99.90      -99.90      -99.90      -99.90    
   6   -99.90      -99.90      -99.90      -99.90      -99.90      -99.90      -99.90      -99.90      -99.90      -99.90    
       -99.90      -99.90      -99.90      -99.90      -99.90      -99.90      -99.90      -99.90      -99.90      -99.90    
       -99.90      -99.90      -99.90      -99.90      -99.90      -99.90      -99.90      -99.90      -99.90      -99.90    
       -99.90      -99.90      -99.90      -99.90      -99.90      -99.90      -99.90      -99.90      -99.90      -99.90    
   7   -99.90      -99.90      -99.90      -99.90      -99.90      -99.90      -99.90      -99.90      -99.90      -99.90    
       -99.90      -99.90      -99.90      -99.90      -99.90      -99.90      -99.90      -99.90      -99.90      -99.90    
       -99.90      -99.90      -99.90      -99.90      -99.90      -99.90      -99.90      -99.90      -99.90      -99.90    
       -99.90      -99.90      -99.90      -99.90      -99.90      -99.90      -99.90      -99.90      -99.90      -99.90    
   8   -99.90      -99.90      -99.90      -99.90      -99.90      -99.90      -99.90      -99.90      -99.90      -99.90    
       -99.90      -99.90      -99.90      -99.90      -99.90      -99.90      -99.90      -99.90      -99.90      -99.90    
       -99.90      -99.90      -99.90      -99.90      -99.90      -99.90      -99.90      -99.90      -99.90      -99.90    
       -99.90      -99.90      -99.90      -99.90      -99.90      -99.90      -99.90      -99.90      -99.90      -99.90    
   9   -99.90      -99.90      -99.90      -99.90      -99.90      -99.90      -99.90      -99.90      -99.90      -99.90    
       -99.90      -99.90      -99.90      -99.90      -99.90      -99.90      -99.90      -99.90      -99.90      -99.90    
       -99.90      -99.90      -99.90      -99.90      -99.90      -99.90      -99.90      -99.90      -99.90      -99.90    
       -99.90      -99.90      -99.90      -99.90      -99.90      -99.90      -99.90      -99.90      -99.90      -99.90    
  10   -99.90      -99.90      -99.90      -99.90      -99.90      -99.90      -99.90      -99.90      -99.90      -99.90    
       -99.90      -99.90      -99.90      -99.90      -99.90      -99.90      -99.90      -99.90      -99.90      -99.90    
       -99.90      -99.90      -99.90      -99.90      -99.90      -99.90      -99.90      -99.90      -99.90      -99.90    
       -99.90      -99.90      -99.90      -99.90      -99.90      -99.90      -99.90      -99.90      -99.90      -99.90    
  11   -99.90      -99.90      -99.90      -99.90      -99.90      -99.90      -99.90      -99.90      -99.90      -99.90    
       -99.90      -99.90      -99.90      -99.90      -99.90      -99.90      -99.90      -99.90      -99.90      -99.90    
       -99.90      -99.90      -99.90      -99.90      -99.90      -99.90      -99.90      -99.90      -99.90      -99.90    
       -99.90      -99.90      -99.90      -99.90      -99.90      -99.90      -99.90      -99.90      -99.90      -99.90    
  12   -99.90      -99.90      -99.90      -99.90      -99.90      -99.90      -99.90      -99.90      -99.90      -99.90    
       -99.90      -99.90      -99.90      -99.90      -99.90      -99.90      -99.90      -99.90      -99.90      -99.90    
       -99.90      -99.90      -99.90      -99.90      -99.90      -99.90      -99.90      -99.90      -99.90      -99.90    
       -99.90      -99.90      -99.90      -99.90      -99.90      -99.90      -99.90      -99.90      -99.90      -99.90    
  13   -99.90      -99.90      -99.90      -99.90      -99.90      -99.90      -99.90      -99.90      -99.90      -99.90    
       -99.90      -99.90      -99.90      -99.90      -99.90      -99.90      -99.90      -99.90      -99.90      -99.90    
       -99.90      -99.90      -99.90      -99.90      -99.90      -99.90      -99.90      -99.90      -99.90      -99.90    
       -99.90      -99.90      -99.90      -99.90      -99.90      -99.90      -99.90      -99.90      -99.90      -99.90    
  14   -99.90      -99.90      -99.90      -99.90      -99.90      -99.90      -99.90      -99.90      -99.90      -99.90    
       -99.90      -99.90      -99.90      -99.90      -99.90      -99.90      -99.90      -99.90      -99.90      -99.90    
       -99.90      -99.90      -99.90      -99.90      -99.90      -99.90      -99.90      -99.90      -99.90      -99.90    
       -99.90      -99.90      -99.90      -99.90      -99.90      -99.90      -99.90      -99.90      -99.90      -99.90    
  15   -99.90      -99.90      -99.90      -99.90      -99.90      -99.90      -99.90      -99.90      -99.90      -99.90    
       -99.90      -99.90      -99.90      -99.90      -99.90      -99.90      -99.90      -99.90      -99.90      -99.90    
       -99.90      -99.90      -99.90      -99.90      -99.90      -99.90      -99.90      -99.90      -99.90      -99.90    
       -99.90      -99.90      -99.90      -99.90      -99.90      -99.90      -99.90      -99.90      -99.90      -99.90    
  16   -99.90      -99.90      -99.90      -99.90      -99.90      -99.90      -99.90      -99.90      -99.90      -99.90    
       -99.90      -99.90      -99.90      -99.90      -99.90      -99.90      -99.90      -99.90      -99.90      -99.90    
       -99.90      -99.90      -99.90      -99.90      -99.90      -99.90      -99.90      -99.90      -99.90      -99.90    
       -99.90      -99.90      -99.90      -99.90      -99.90      -99.90      -99.90      -99.90      -99.90      -99.90    
  17   -99.90      -99.90      -99.90      -99.90      -99.90      -99.90      -99.90      -99.90      -99.90      -99.90    
       -99.90      -99.90      -99.90      -99.90      -99.90      -99.90      -99.90      -99.90      -99.90      -99.90    
       -99.90      -99.90      -99.90      -99.90      -99.90      -99.90      -99.90      -99.90      -99.90      -99.90    
       -99.90      -99.90      -99.90      -99.90      -99.90      -99.90      -99.90      -99.90      -99.90      -99.90    
  18   -99.90      -99.90      -99.90      -99.90      -99.90      -99.90      -99.90      -99.90      -99.90      -99.90    
       -99.90      -99.90      -99.90      -99.90      -99.90      -99.90      -99.90      -99.90      -99.90      -99.90    
       -99.90      -99.90      -99.90      -99.90      -99.90      -99.90      -99.90      -99.90      -99.90      -99.90    
       -99.90      -99.90      -99.90      -99.90      -99.90      -99.90      -99.90      -99.90      -99.90      -99.90    
  19   -99.90      -99.90      -99.90      -99.90      -99.90      -99.90      -99.90      -99.90      -99.90      -99.90    
       -99.90      -99.90      -99.90      -99.90      -99.90      -99.90      -99.90      -99.90      -99.90      -99.90    
       -99.90      -99.90      -99.90      -99.90      -99.90      -99.90      -99.90      -99.90      -99.90      -99.90    
       -99.90      -99.90      -99.90      -99.90      -99.90      -99.90      -99.90      -99.90      -99.90      -99.90    
  20   -99.90      -99.90      -99.90      -99.90      -99.90      -99.90      -99.90      -99.90      -99.90      -99.90    
       -99.90      -99.90      -99.90      -99.90      -99.90      -99.90      -99.90      -99.90      -99.90      -99.90    
       -99.90      -99.90      -99.90      -99.90      -99.90      -99.90      -99.90      -99.90      -99.90      -99.90    
       -99.90      -99.90      -99.90      -99.90      -99.90      -99.90      -99.90      -99.90      -99.90      -99.90    
  21   -99.90      -99.90      -99.90      -99.90      -99.90      -99.90      -99.90      -99.90      -99.90      -99.90    
       -99.90      -99.90      -99.90      -99.90      -99.90      -99.90      -99.90      -99.90      -99.90      -99.90    
       -99.90      -99.90      -99.90      -99.90      -99.90      -99.90      -99.90      -99.90      -99.90      -99.90    
       -99.90      -99.90      -99.90      -99.90      -99.90      -99.90      -99.90      -99.90      -99.90      -99.90    
  22   -99.90      -99.90      -99.90      -99.90      -99.90      -99.90      -99.90      -99.90      -99.90      -99.90    
       -99.90      -99.90      -99.90      -99.90      -99.90      -99.90      -99.90      -99.90      -99.90      -99.90    
       -99.90      -99.90      -99.90      -99.90      -99.90      -99.90      -99.90      -99.90      -99.90      -99.90    
       -99.90      -99.90      -99.90      -99.90      -99.90      -99.90      -99.90      -99.90      -99.90      -99.90    
  23   -99.90      -99.90      -99.90      -99.90      -99.90      -99.90      -99.90      -99.90      -99.90      -99.90    
       -99.90      -99.90      -99.90      -99.90      -99.90      -99.90      -99.90      -99.90      -99.90      -99.90    
       -99.90      -99.90      -99.90      -99.90      -99.90      -99.90      -99.90      -99.90      -99.90      -99.90    
       -99.90      -99.90      -99.90      -99.90      -99.90      -99.90      -99.90      -99.90      -99.90      -99.90    
  24   -99.90      -99.90      -99.90      -99.90      -99.90      -99.90      -99.90      -99.90      -99.90      -99.90    
       -99.90      -99.90      -99.90      -99.90      -99.90      -99.90      -99.90      -99.90      -99.90      -99.90    
       -99.90      -99.90      -99.90      -99.90      -99.90      -99.90      -99.90      -99.90      -99.90      -99.90    
       -99.90      -99.90      -99.90      -99.90      -99.90      -99.90      -99.90      -99.90      -99.90      -99.90    
  25   -99.90      -99.90      -99.90      -99.90      -99.90      -99.90      -99.90      -99.90      -99.90      -99.90    
       -99.90      -99.90      -99.90      -99.90      -99.90      -99.90      -99.90      -99.90      -99.90      -99.90    
       -99.90      -99.90      -99.90      -99.90      -99.90      -99.90      -99.90      -99.90      -99.90      -99.90    
       -99.90      -99.90      -99.90      -99.90      -99.90      -99.90      -99.90      -99.90      -99.90      -99.90    
  26   -99.90      -99.90      -99.90      -99.90      -99.90      -99.90      -99.90      -99.90      -99.90      -99.90    
       -99.90      -99.90      -99.90      -99.90      -99.90      -99.90      -99.90      -99.90      -99.90      -99.90    
       -99.90      -99.90      -99.90      -99.90      -99.90      -99.90      -99.90      -99.90      -99.90      -99.90    
       -99.90      -99.90      -99.90      -99.90      -99.90      -99.90      -99.90      -99.90      -99.90      -99.90    
  27   -99.90      -99.90      -99.90      -99.90      -99.90      -99.90      -99.90      -99.90      -99.90      -99.90    
       -99.90      -99.90      -99.90      -99.90      -99.90      -99.90      -99.90      -99.90      -99.90      -99.90    
       -99.90      -99.90      -99.90      -99.90      -99.90      -99.90      -99.90      -99.90      -99.90      -99.90    
       -99.90      -99.90      -99.90      -99.90      -99.90      -99.90      -99.90      -99.90      -99.90      -99.90    
  28   -99.90      -99.90      -99.90      -99.90      -99.90      -99.90      -99.90      -99.90      -99.90      -99.90    
       -99.90      -99.90      -99.90      -99.90      -99.90      -99.90      -99.90      -99.90      -99.90      -99.90    
       -99.90      -99.90      -99.90      -99.90      -99.90      -99.90      -99.90      -99.90      -99.90      -99.90    
       -99.90      -99.90      -99.90      -99.90      -99.90      -99.90      -99.90      -99.90      -99.90      -99.90    
  29   -99.90      -99.90      -99.90      -99.90      -99.90      -99.90      -99.90      -99.90      -99.90      -99.90    
       -99.90      -99.90      -99.90      -99.90      -99.90      -99.90      -99.90      -99.90      -99.90      -99.90    
       -99.90      -99.90      -99.90      -99.90      -99.90      -99.90      -99.90      -99.90      -99.90      -99.90    
       -99.90      -99.90      -99.90      -99.90      -99.90      -99.90      -99.90      -99.90      -99.90      -99.90    
  30   -99.90      -99.90      -99.90      -99.90      -99.90      -99.90      -99.90      -99.90      -99.90      -99.90    
       -99.90      -99.90      -99.90      -99.90      -99.90      -99.90      -99.90      -99.90      -99.90      -99.90    
       -99.90      -99.90      -99.90      -99.90      -99.90      -99.90      -99.90      -99.90      -99.90      -99.90    
       -99.90      -99.90      -99.90      -99.90      -99.90      -99.90      -99.90      -99.90      -99.90      -99.90    
  31   -99.90      -99.90      -99.90      -99.90      -99.90      -99.90      -99.90      -99.90      -99.90      -99.90    
       -99.90      -99.90      -99.90      -99.90      -99.90      -99.90      -99.90      -99.90      -99.90      -99.90    
       -99.90      -99.90      -99.90      -99.90      -99.90      -99.90      -99.90      -99.90      -99.90      -99.90    
       -99.90      -99.90      -99.90      -99.90      -99.90      -99.90      -99.90      -99.90      -99.90      -99.90    
  32   -99.90      -99.90      -99.90      -99.90      -99.90      -99.90      -99.90      -99.90      -99.90      -99.90    
       -99.90      -99.90      -99.90      -99.90      -99.90      -99.90      -99.90      -99.90      -99.90      -99.90    
       -99.90      -99.90      -99.90      -99.90      -99.90      -99.90      -99.90      -99.90      -99.90      -99.90    
       -99.90      -99.90      -99.90      -99.90      -99.90      -99.90      -99.90      -99.90      -99.90      -99.90    
  33   -99.90      -99.90      -99.90      -99.90      -99.90      -99.90      -99.90      -99.90      -99.90      -99.90    
       -99.90      -99.90      -99.90      -99.90      -99.90      -99.90      -99.90      -99.90      -99.90      -99.90    
       -99.90      -99.90      -99.90      -99.90      -99.90      -99.90      -99.90      -99.90      -99.90      -99.90    
       -99.90      -99.90      -99.90      -99.90      -99.90      -99.90      -99.90      -99.90      -99.90      -99.90    
  34   -99.90      -99.90      -99.90      -99.90      -99.90      -99.90      -99.90      -99.90      -99.90      -99.90    
       -99.90      -99.90      -99.90      -99.90      -99.90      -99.90      -99.90      -99.90      -99.90      -99.90    
       -99.90      -99.90      -99.90      -99.90      -99.90      -99.90      -99.90      -99.90      -99.90      -99.90    
       -99.90      -99.90      -99.90      -99.90      -99.90      -99.90      -99.90      -99.90      -99.90      -99.90    
  35   -99.90      -99.90      -99.90      -99.90      -99.90      -99.90      -99.90      -99.90      -99.90      -99.90    
       -99.90      -99.90      -99.90      -99.90      -99.90      -99.90      -99.90      -99.90      -99.90      -99.90    
       -99.90      -99.90      -99.90      -99.90      -99.90      -99.90      -99.90      -99.90      -99.90      -99.90    
       -99.90      -99.90      -99.90      -99.90      -99.90      -99.90      -99.90      -99.90      -99.90      -99.90    
  36   -99.90      -99.90      -99.90      -99.90      -99.90      -99.90      -99.90      -99.90      -99.90      -99.90    
       -99.90      -99.90      -99.90      -99.90      -99.90      -99.90      -99.90      -99.90      -99.90      -99.90    
       -99.90      -99.90      -99.90      -99.90      -99.90      -99.90      -99.90      -99.90      -99.90      -99.90    
       -99.90      -99.90      -99.90      -99.90      -99.90      -99.90      -99.90      -99.90      -99.90      -99.90    
  37   -99.90      -99.90      -99.90      -99.90      -99.90      -99.90      -99.90      -99.90      -99.90      -99.90    
       -99.90      -99.90      -99.90      -99.90      -99.90      -99.90      -99.90      -99.90      -99.90      -99.90    
       -99.90      -99.90      -99.90      -99.90      -99.90      -99.90      -99.90      -99.90      -99.90      -99.90    
       -99.90      -99.90      -99.90      -99.90      -99.90      -99.90      -99.90      -99.90      -99.90      -99.90    
  38   -99.90      -99.90      -99.90      -99.90      -99.90      -99.90      -99.90      -99.90      -99.90      -99.90    
       -99.90      -99.90      -99.90      -99.90      -99.90      -99.90      -99.90      -99.90      -99.90      -99.90    
       -99.90      -99.90      -99.90      -99.90      -99.90      -99.90      -99.90      -99.90      -99.90      -99.90    
       -99.90      -99.90      -99.90      -99.90      -99.90      -99.90      -99.90      -99.90      -99.90      -99.90    
  39   -99.90      -99.90      -99.90      -99.90      -99.90      -99.90      -99.90      -99.90      -99.90      -99.90    
       -99.90      -99.90      -99.90      -99.90      -99.90      -99.90      -99.90      -99.90      -99.90      -99.90    
       -99.90      -99.90      -99.90      -99.90      -99.90      -99.90      -99.90      -99.90      -99.90      -99.90    
       -99.90      -99.90      -99.90      -99.90      -99.90      -99.90      -99.90      -99.90      -99.90      -99.90    
  40   -99.90      -99.90      -99.90      -99.90      -99.90      -99.90      -99.90      -99.90      -99.90      -99.90    
       -99.90      -99.90      -99.90      -99.90      -99.90      -99.90      -99.90      -99.90      -99.90      -99.90    
       -99.90      -99.90      -99.90      -99.90      -99.90      -99.90      -99.90      -99.90      -99.90      -99.90    
       -99.90      -99.90      -99.90      -99.90      -99.90      -99.90      -99.90      -99.90      -99.90      -99.90    
1
              HEAD IN LAYER   4 AT END OF TIME STEP   2 IN STRESS PERIOD    3
  ---------------------------------------------------------------------------

            1           2           3           4           5           6           7           8           9          10
           11          12          13          14          15          16          17          18          19          20
           21          22          23          24          25          26          27          28          29          30
           31          32          33          34          35          36          37          38          39          40
 ........................................................................................................................
   1   -99.90      -99.90      -99.90      -99.90      -99.90      -99.90      -99.90      -99.90      -99.90      -99.90    
       -99.90      -99.90      -99.90      -99.90      -99.90      -99.90      -99.90      -99.90      -99.90      -99.90    
       -99.90      -99.90      -99.90      -99.90      -99.90      -99.90      -99.90      -99.90      -99.90      -99.90    
       -99.90      -99.90      -99.90      -99.90      -99.90      -99.90      -99.90      -99.90      -99.90      -99.90    
   2   -99.90      -99.90      -99.90      -99.90      -99.90      -99.90      -99.90      -99.90      -99.90      -99.90    
       -99.90      -99.90      -99.90      -99.90      -99.90      -99.90      -99.90      -99.90      -99.90      -99.90    
       -99.90      -99.90      -99.90      -99.90      -99.90      -99.90      -99.90      -99.90      -99.90      -99.90    
       -99.90      -99.90      -99.90      -99.90      -99.90      -99.90      -99.90      -99.90      -99.90      -99.90    
   3   -99.90      -99.90      -99.90      -99.90      -99.90      -99.90      -99.90      -99.90      -99.90      -99.90    
       -99.90      -99.90      -99.90      -99.90      -99.90      -99.90      -99.90      -99.90      -99.90      -99.90    
       -99.90      -99.90      -99.90      -99.90      -99.90      -99.90      -99.90      -99.90      -99.90      -99.90    
       -99.90      -99.90      -99.90      -99.90      -99.90      -99.90      -99.90      -99.90      -99.90      -99.90    
   4   -99.90      -99.90      -99.90      -99.90      -99.90      -99.90      -99.90      -99.90      -99.90      -99.90    
       -99.90      -99.90      -99.90      -99.90      -99.90      -99.90      -99.90      -99.90      -99.90      -99.90    
       -99.90      -99.90      -99.90      -99.90      -99.90      -99.90      -99.90      -99.90      -99.90      -99.90    
       -99.90      -99.90      -99.90      -99.90      -99.90      -99.90      -99.90      -99.90      -99.90      -99.90    
   5   -99.90      -99.90      -99.90      -99.90      -99.90      -99.90      -99.90      -99.90      -99.90      -99.90    
       -99.90      -99.90      -99.90      -99.90      -99.90      -99.90      -99.90      -99.90      -99.90      -99.90    
       -99.90      -99.90      -99.90      -99.90      -99.90      -99.90      -99.90      -99.90      -99.90      -99.90    
       -99.90      -99.90      -99.90      -99.90      -99.90      -99.90      -99.90      -99.90      -99.90      -99.90    
   6   -99.90      -99.90      -99.90      -99.90      -99.90      -99.90      -99.90      -99.90      -99.90      -99.90    
       -99.90      -99.90      -99.90      -99.90      -99.90      -99.90      -99.90      -99.90      -99.90      -99.90    
       -99.90      -99.90      -99.90      -99.90      -99.90      -99.90      -99.90      -99.90      -99.90      -99.90    
       -99.90      -99.90      -99.90      -99.90      -99.90      -99.90      -99.90      -99.90      -99.90      -99.90    
   7   -99.90      -99.90      -99.90      -99.90      -99.90      -99.90      -99.90      -99.90      -99.90      -99.90    
       -99.90      -99.90      -99.90      -99.90      -99.90      -99.90      -99.90      -99.90      -99.90      -99.90    
       -99.90      -99.90      -99.90      -99.90      -99.90      -99.90      -99.90      -99.90      -99.90      -99.90    
       -99.90      -99.90      -99.90      -99.90      -99.90      -99.90      -99.90      -99.90      -99.90      -99.90    
   8   -99.90      -99.90      -99.90      -99.90      -99.90      -99.90      -99.90      -99.90      -99.90      -99.90    
       -99.90      -99.90      -99.90      -99.90      -99.90      -99.90      -99.90      -99.90      -99.90      -99.90    
       -99.90      -99.90      -99.90      -99.90      -99.90      -99.90      -99.90      -99.90      -99.90      -99.90    
       -99.90      -99.90      -99.90      -99.90      -99.90      -99.90      -99.90      -99.90      -99.90      -99.90    
   9   -99.90      -99.90      -99.90      -99.90      -99.90      -99.90      -99.90      -99.90      -99.90      -99.90    
       -99.90      -99.90      -99.90      -99.90      -99.90      -99.90      -99.90      -99.90      -99.90      -99.90    
       -99.90      -99.90      -99.90      -99.90      -99.90      -99.90      -99.90      -99.90      -99.90      -99.90    
       -99.90      -99.90      -99.90      -99.90      -99.90      -99.90      -99.90      -99.90      -99.90      -99.90    
  10   -99.90      -99.90      -99.90      -99.90      -99.90      -99.90      -99.90      -99.90      -99.90      -99.90    
       -99.90      -99.90      -99.90      -99.90      -99.90      -99.90      -99.90      -99.90      -99.90      -99.90    
       -99.90      -99.90      -99.90      -99.90      -99.90      -99.90      -99.90      -99.90      -99.90      -99.90    
       -99.90      -99.90      -99.90      -99.90      -99.90      -99.90      -99.90      -99.90      -99.90      -99.90    
  11   -99.90      -99.90      -99.90      -99.90      -99.90      -99.90      -99.90      -99.90      -99.90      -99.90    
       -99.90      -99.90      -99.90      -99.90      -99.90      -99.90      -99.90      -99.90      -99.90      -99.90    
       -99.90      -99.90      -99.90      -99.90      -99.90      -99.90      -99.90      -99.90      -99.90      -99.90    
       -99.90      -99.90      -99.90      -99.90      -99.90      -99.90      -99.90      -99.90      -99.90      -99.90    
  12   -99.90      -99.90      -99.90      -99.90      -99.90      -99.90      -99.90      -99.90      -99.90      -99.90    
       -99.90      -99.90      -99.90      -99.90      -99.90      -99.90      -99.90      -99.90      -99.90      -99.90    
       -99.90      -99.90      -99.90      -99.90      -99.90      -99.90      -99.90      -99.90      -99.90      -99.90    
       -99.90      -99.90      -99.90      -99.90      -99.90      -99.90      -99.90      -99.90      -99.90      -99.90    
  13   -99.90      -99.90      -99.90      -99.90      -99.90      -99.90      -99.90      -99.90      -99.90      -99.90    
       -99.90      -99.90      -99.90      -99.90      -99.90      -99.90      -99.90      -99.90      -99.90      -99.90    
       -99.90      -99.90      -99.90      -99.90      -99.90      -99.90      -99.90      -99.90      -99.90      -99.90    
       -99.90      -99.90      -99.90      -99.90      -99.90      -99.90      -99.90      -99.90      -99.90      -99.90    
  14   -99.90      -99.90      -99.90      -99.90      -99.90      -99.90      -99.90      -99.90      -99.90      -99.90    
       -99.90      -99.90      -99.90      -99.90      -99.90      -99.90      -99.90      -99.90      -99.90      -99.90    
       -99.90      -99.90      -99.90      -99.90      -99.90      -99.90      -99.90      -99.90      -99.90      -99.90    
       -99.90      -99.90      -99.90      -99.90      -99.90      -99.90      -99.90      -99.90      -99.90      -99.90    
  15   -99.90      -99.90      -99.90      -99.90      -99.90      -99.90      -99.90      -99.90      -99.90      -99.90    
       -99.90      -99.90      -99.90      -99.90      -99.90      -99.90      -99.90      -99.90      -99.90      -99.90    
       -99.90      -99.90      -99.90      -99.90      -99.90      -99.90      -99.90      -99.90      -99.90      -99.90    
       -99.90      -99.90      -99.90      -99.90      -99.90      -99.90      -99.90      -99.90      -99.90      -99.90    
  16   -99.90      -99.90      -99.90      -99.90      -99.90      -99.90      -99.90      -99.90      -99.90      -99.90    
       -99.90      -99.90      -99.90      -99.90      -99.90      -99.90      -99.90      -99.90      -99.90      -99.90    
       -99.90      -99.90      -99.90      -99.90      -99.90      -99.90      -99.90      -99.90      -99.90      -99.90    
       -99.90      -99.90      -99.90      -99.90      -99.90      -99.90      -99.90      -99.90      -99.90      -99.90    
  17   -99.90      -99.90      -99.90      -99.90      -99.90      -99.90      -99.90      -99.90      -99.90      -99.90    
       -99.90      -99.90      -99.90      -99.90      -99.90      -99.90      -99.90      -99.90      -99.90      -99.90    
       -99.90      -99.90      -99.90      -99.90      -99.90      -99.90      -99.90      -99.90      -99.90      -99.90    
       -99.90      -99.90      -99.90      -99.90      -99.90      -99.90      -99.90      -99.90      -99.90      -99.90    
  18   -99.90      -99.90      -99.90      -99.90      -99.90      -99.90      -99.90      -99.90      -99.90      -99.90    
       -99.90      -99.90      -99.90      -99.90      -99.90      -99.90      -99.90      -99.90      -99.90      -99.90    
       -99.90      -99.90      -99.90      -99.90      -99.90      -99.90      -99.90      -99.90      -99.90      -99.90    
       -99.90      -99.90      -99.90      -99.90      -99.90      -99.90      -99.90      -99.90      -99.90      -99.90    
  19   -99.90      -99.90      -99.90      -99.90      -99.90      -99.90      -99.90      -99.90      -99.90      -99.90    
       -99.90      -99.90      -99.90      -99.90      -99.90      -99.90      -99.90      -99.90      -99.90      -99.90    
       -99.90      -99.90      -99.90      -99.90      -99.90      -99.90      -99.90      -99.90      -99.90      -99.90    
       -99.90      -99.90      -99.90      -99.90      -99.90      -99.90      -99.90      -99.90      -99.90      -99.90    
  20   -99.90      -99.90      -99.90      -99.90      -99.90      -99.90      -99.90      -99.90      -99.90      -99.90    
       -99.90      -99.90      -99.90      -99.90      -99.90      -99.90      -99.90      -99.90      -99.90      -99.90    
       -99.90      -99.90      -99.90      -99.90      -99.90      -99.90      -99.90      -99.90      -99.90      -99.90    
       -99.90      -99.90      -99.90      -99.90      -99.90      -99.90      -99.90      -99.90      -99.90      -99.90    
  21   -99.90      -99.90      -99.90      -99.90      -99.90      -99.90      -99.90      -99.90      -99.90      -99.90    
       -99.90      -99.90      -99.90      -99.90      -99.90      -99.90      -99.90      -99.90      -99.90      -99.90    
       -99.90      -99.90      -99.90      -99.90      -99.90      -99.90      -99.90      -99.90      -99.90      -99.90    
       -99.90      -99.90      -99.90      -99.90      -99.90      -99.90      -99.90      -99.90      -99.90      -99.90    
  22   -99.90      -99.90      -99.90      -99.90      -99.90      -99.90      -99.90      -99.90      -99.90      -99.90    
       -99.90      -99.90      -99.90      -99.90      -99.90      -99.90      -99.90      -99.90      -99.90      -99.90    
       -99.90      -99.90      -99.90      -99.90      -99.90      -99.90      -99.90      -99.90      -99.90      -99.90    
       -99.90      -99.90      -99.90      -99.90      -99.90      -99.90      -99.90      -99.90      -99.90      -99.90    
  23   -99.90      -99.90      -99.90      -99.90      -99.90      -99.90      -99.90      -99.90      -99.90      -99.90    
       -99.90      -99.90      -99.90      -99.90      -99.90      -99.90      -99.90      -99.90      -99.90      -99.90    
       -99.90      -99.90      -99.90      -99.90      -99.90      -99.90      -99.90      -99.90      -99.90      -99.90    
       -99.90      -99.90      -99.90      -99.90      -99.90      -99.90      -99.90      -99.90      -99.90      -99.90    
  24   -99.90      -99.90      -99.90      -99.90      -99.90      -99.90      -99.90      -99.90      -99.90      -99.90    
       -99.90      -99.90      -99.90      -99.90      -99.90      -99.90      -99.90      -99.90      -99.90      -99.90    
       -99.90      -99.90      -99.90      -99.90      -99.90      -99.90      -99.90      -99.90      -99.90      -99.90    
       -99.90      -99.90      -99.90      -99.90      -99.90      -99.90      -99.90      -99.90      -99.90      -99.90    
  25   -99.90      -99.90      -99.90      -99.90      -99.90      -99.90      -99.90      -99.90      -99.90      -99.90    
       -99.90      -99.90      -99.90      -99.90      -99.90      -99.90      -99.90      -99.90      -99.90      -99.90    
       -99.90      -99.90      -99.90      -99.90      -99.90      -99.90      -99.90      -99.90      -99.90      -99.90    
       -99.90      -99.90      -99.90      -99.90      -99.90      -99.90      -99.90      -99.90      -99.90      -99.90    
  26   -99.90      -99.90      -99.90      -99.90      -99.90      -99.90      -99.90      -99.90      -99.90      -99.90    
       -99.90      -99.90      -99.90      -99.90      -99.90      -99.90      -99.90      -99.90      -99.90      -99.90    
       -99.90      -99.90      -99.90      -99.90      -99.90      -99.90      -99.90      -99.90      -99.90      -99.90    
       -99.90      -99.90      -99.90      -99.90      -99.90      -99.90      -99.90      -99.90      -99.90      -99.90    
  27   -99.90      -99.90      -99.90      -99.90      -99.90      -99.90      -99.90      -99.90      -99.90      -99.90    
       -99.90      -99.90      -99.90      -99.90      -99.90      -99.90      -99.90      -99.90      -99.90      -99.90    
       -99.90      -99.90      -99.90      -99.90      -99.90      -99.90      -99.90      -99.90      -99.90      -99.90    
       -99.90      -99.90      -99.90      -99.90      -99.90      -99.90      -99.90      -99.90      -99.90      -99.90    
  28   -99.90      -99.90      -99.90      -99.90      -99.90      -99.90      -99.90      -99.90      -99.90      -99.90    
       -99.90      -99.90      -99.90      -99.90      -99.90      -99.90      -99.90      -99.90      -99.90      -99.90    
       -99.90      -99.90      -99.90      -99.90      -99.90      -99.90      -99.90      -99.90      -99.90      -99.90    
       -99.90      -99.90      -99.90      -99.90      -99.90      -99.90      -99.90      -99.90      -99.90      -99.90    
  29   -99.90      -99.90      -99.90      -99.90      -99.90      -99.90      -99.90      -99.90      -99.90      -99.90    
       -99.90      -99.90      -99.90      -99.90      -99.90      -99.90      -99.90      -99.90      -99.90      -99.90    
       -99.90      -99.90      -99.90      -99.90      -99.90      -99.90      -99.90      -99.90      -99.90      -99.90    
       -99.90      -99.90      -99.90      -99.90      -99.90      -99.90      -99.90      -99.90      -99.90      -99.90    
  30   -99.90      -99.90      -99.90      -99.90      -99.90      -99.90      -99.90      -99.90      -99.90      -99.90    
       -99.90      -99.90      -99.90      -99.90      -99.90      -99.90      -99.90      -99.90      -99.90      -99.90    
       -99.90      -99.90      -99.90      -99.90      -99.90      -99.90      -99.90      -99.90      -99.90      -99.90    
       -99.90      -99.90      -99.90      -99.90      -99.90      -99.90      -99.90      -99.90      -99.90      -99.90    
  31   -99.90      -99.90      -99.90      -99.90      -99.90      -99.90      -99.90      -99.90      -99.90      -99.90    
       -99.90      -99.90      -99.90      -99.90      -99.90      -99.90      -99.90      -99.90      -99.90      -99.90    
       -99.90      -99.90      -99.90      -99.90      -99.90      -99.90      -99.90      -99.90      -99.90      -99.90    
       -99.90      -99.90      -99.90      -99.90      -99.90      -99.90      -99.90      -99.90      -99.90      -99.90    
  32   -99.90      -99.90      -99.90      -99.90      -99.90      -99.90      -99.90      -99.90      -99.90      -99.90    
       -99.90      -99.90      -99.90      -99.90      -99.90      -99.90      -99.90      -99.90      -99.90      -99.90    
       -99.90      -99.90      -99.90      -99.90      -99.90      -99.90      -99.90      -99.90      -99.90      -99.90    
       -99.90      -99.90      -99.90      -99.90      -99.90      -99.90      -99.90      -99.90      -99.90      -99.90    
  33   -99.90      -99.90      -99.90      -99.90      -99.90      -99.90      -99.90      -99.90      -99.90      -99.90    
       -99.90      -99.90      -99.90      -99.90      -99.90      -99.90      -99.90      -99.90      -99.90      -99.90    
       -99.90      -99.90      -99.90      -99.90      -99.90      -99.90      -99.90      -99.90      -99.90      -99.90    
       -99.90      -99.90      -99.90      -99.90      -99.90      -99.90      -99.90      -99.90      -99.90      -99.90    
  34   -99.90      -99.90      -99.90      -99.90      -99.90      -99.90      -99.90      -99.90      -99.90      -99.90    
       -99.90      -99.90      -99.90      -99.90      -99.90      -99.90      -99.90      -99.90      -99.90      -99.90    
       -99.90      -99.90      -99.90      -99.90      -99.90      -99.90      -99.90      -99.90      -99.90      -99.90    
       -99.90      -99.90      -99.90      -99.90      -99.90      -99.90      -99.90      -99.90      -99.90      -99.90    
  35   -99.90      -99.90      -99.90      -99.90      -99.90      -99.90      -99.90      -99.90      -99.90      -99.90    
       -99.90      -99.90      -99.90      -99.90      -99.90      -99.90      -99.90      -99.90      -99.90      -99.90    
       -99.90      -99.90      -99.90      -99.90      -99.90      -99.90      -99.90      -99.90      -99.90      -99.90    
       -99.90      -99.90      -99.90      -99.90      -99.90      -99.90      -99.90      -99.90      -99.90      -99.90    
  36   -99.90      -99.90      -99.90      -99.90      -99.90      -99.90      -99.90      -99.90      -99.90      -99.90    
       -99.90      -99.90      -99.90      -99.90      -99.90      -99.90      -99.90      -99.90      -99.90      -99.90    
       -99.90      -99.90      -99.90      -99.90      -99.90      -99.90      -99.90      -99.90      -99.90      -99.90    
       -99.90      -99.90      -99.90      -99.90      -99.90      -99.90      -99.90      -99.90      -99.90      -99.90    
  37   -99.90      -99.90      -99.90      -99.90      -99.90      -99.90      -99.90      -99.90      -99.90      -99.90    
       -99.90      -99.90      -99.90      -99.90      -99.90      -99.90      -99.90      -99.90      -99.90      -99.90    
       -99.90      -99.90      -99.90      -99.90      -99.90      -99.90      -99.90      -99.90      -99.90      -99.90    
       -99.90      -99.90      -99.90      -99.90      -99.90      -99.90      -99.90      -99.90      -99.90      -99.90    
  38   -99.90      -99.90      -99.90      -99.90      -99.90      -99.90      -99.90      -99.90      -99.90      -99.90    
       -99.90      -99.90      -99.90      -99.90      -99.90      -99.90      -99.90      -99.90      -99.90      -99.90    
       -99.90      -99.90      -99.90      -99.90      -99.90      -99.90      -99.90      -99.90      -99.90      -99.90    
       -99.90      -99.90      -99.90      -99.90      -99.90      -99.90      -99.90      -99.90      -99.90      -99.90    
  39   -99.90      -99.90      -99.90      -99.90      -99.90      -99.90      -99.90      -99.90      -99.90      -99.90    
       -99.90      -99.90      -99.90      -99.90      -99.90      -99.90      -99.90      -99.90      -99.90      -99.90    
       -99.90      -99.90      -99.90      -99.90      -99.90      -99.90      -99.90      -99.90      -99.90      -99.90    
       -99.90      -99.90      -99.90      -99.90      -99.90      -99.90      -99.90      -99.90      -99.90      -99.90    
  40   -99.90      -99.90      -99.90      -99.90      -99.90      -99.90      -99.90      -99.90      -99.90      -99.90    
       -99.90      -99.90      -99.90      -99.90      -99.90      -99.90      -99.90      -99.90      -99.90      -99.90    
       -99.90      -99.90      -99.90      -99.90      -99.90      -99.90      -99.90      -99.90      -99.90      -99.90    
       -99.90      -99.90      -99.90      -99.90      -99.90      -99.90      -99.90      -99.90      -99.90      -99.90    
1
              HEAD IN LAYER   5 AT END OF TIME STEP   2 IN STRESS PERIOD    3
  ---------------------------------------------------------------------------

            1           2           3           4           5           6           7           8           9          10
           11          12          13          14          15          16          17          18          19          20
           21          22          23          24          25          26          27          28          29          30
           31          32          33          34          35          36          37          38          39          40
 ........................................................................................................................
   1    50.06       48.67      -99.90      -99.90      -99.90      -99.90      -99.90      -99.90      -99.90      -99.90    
       -99.90      -99.90      -99.90      -99.90      -99.90      -99.90      -99.90      -99.90      -99.90      -99.90    
       -99.90      -99.90      -99.90      -99.90      -99.90      -99.90      -99.90      -99.90      -99.90      -99.90    
       -99.90      -99.90      -99.90      -99.90      -99.90      -99.90      -99.90      -99.90      -99.90      -99.90    
   2    48.67       47.48      -99.90      -99.90      -99.90      -99.90      -99.90      -99.90      -99.90      -99.90    
       -99.90      -99.90      -99.90      -99.90      -99.90      -99.90      -99.90      -99.90      -99.90      -99.90    
       -99.90      -99.90      -99.90      -99.90      -99.90      -99.90      -99.90      -99.90      -99.90      -99.90    
       -99.90      -99.90      -99.90      -99.90      -99.90      -99.90      -99.90      -99.90      -99.90      -99.90    
   3   -99.90      -99.90      -99.90      -99.90      -99.90      -99.90      -99.90      -99.90      -99.90      -99.90    
       -99.90      -99.90      -99.90      -99.90      -99.90      -99.90      -99.90      -99.90      -99.90      -99.90    
       -99.90      -99.90      -99.90      -99.90      -99.90      -99.90      -99.90      -99.90      -99.90      -99.90    
       -99.90      -99.90      -99.90      -99.90      -99.90      -99.90      -99.90      -99.90      -99.90      -99.90    
   4   -99.90      -99.90      -99.90      -99.90      -99.90      -99.90      -99.90      -99.90      -99.90      -99.90    
       -99.90      -99.90      -99.90      -99.90      -99.90      -99.90      -99.90      -99.90      -99.90      -99.90    
       -99.90      -99.90      -99.90      -99.90      -99.90      -99.90      -99.90      -99.90      -99.90      -99.90    
       -99.90      -99.90      -99.90      -99.90      -99.90      -99.90      -99.90      -99.90      -99.90      -99.90    
   5   -99.90      -99.90      -99.90      -99.90      -99.90      -99.90      -99.90      -99.90      -99.90      -99.90    
       -99.90      -99.90      -99.90      -99.90      -99.90      -99.90      -99.90      -99.90      -99.90      -99.90    
       -99.90      -99.90      -99.90      -99.90      -99.90      -99.90      -99.90      -99.90      -99.90      -99.90    
       -99.90      -99.90      -99.90      -99.90      -99.90      -99.90      -99.90      -99.90      -99.90      -99.90    
   6   -99.90      -99.90      -99.90      -99.90      -99.90      -99.90      -99.90      -99.90      -99.90      -99.90    
       -99.90      -99.90      -99.90      -99.90      -99.90      -99.90      -99.90      -99.90      -99.90      -99.90    
       -99.90      -99.90      -99.90      -99.90      -99.90      -99.90      -99.90      -99.90      -99.90      -99.90    
       -99.90      -99.90      -99.90      -99.90      -99.90      -99.90      -99.90      -99.90      -99.90      -99.90    
   7   -99.90      -99.90      -99.90      -99.90      -99.90      -99.90      -99.90      -99.90      -99.90      -99.90    
       -99.90      -99.90      -99.90      -99.90      -99.90      -99.90      -99.90      -99.90      -99.90      -99.90    
       -99.90      -99.90      -99.90      -99.90      -99.90      -99.90      -99.90      -99.90      -99.90      -99.90    
       -99.90      -99.90      -99.90      -99.90      -99.90      -99.90      -99.90      -99.90      -99.90      -99.90    
   8   -99.90      -99.90      -99.90      -99.90      -99.90      -99.90      -99.90      -99.90      -99.90      -99.90    
       -99.90      -99.90      -99.90      -99.90      -99.90      -99.90      -99.90      -99.90      -99.90      -99.90    
       -99.90      -99.90      -99.90      -99.90      -99.90      -99.90      -99.90      -99.90      -99.90      -99.90    
       -99.90      -99.90      -99.90      -99.90      -99.90      -99.90      -99.90      -99.90      -99.90      -99.90    
   9   -99.90      -99.90      -99.90      -99.90      -99.90      -99.90      -99.90      -99.90      -99.90      -99.90    
       -99.90      -99.90      -99.90      -99.90      -99.90      -99.90      -99.90      -99.90      -99.90      -99.90    
       -99.90      -99.90      -99.90      -99.90      -99.90      -99.90      -99.90      -99.90      -99.90      -99.90    
       -99.90      -99.90      -99.90      -99.90      -99.90      -99.90      -99.90      -99.90      -99.90      -99.90    
  10   -99.90      -99.90      -99.90      -99.90      -99.90      -99.90      -99.90      -99.90      -99.90      -99.90    
       -99.90      -99.90      -99.90      -99.90      -99.90      -99.90      -99.90      -99.90      -99.90      -99.90    
       -99.90      -99.90      -99.90      -99.90      -99.90      -99.90      -99.90      -99.90      -99.90      -99.90    
       -99.90      -99.90      -99.90      -99.90      -99.90      -99.90      -99.90      -99.90      -99.90      -99.90    
  11   -99.90      -99.90      -99.90      -99.90      -99.90      -99.90      -99.90      -99.90      -99.90      -99.90    
       -99.90      -99.90      -99.90      -99.90      -99.90      -99.90      -99.90      -99.90      -99.90      -99.90    
       -99.90      -99.90      -99.90      -99.90      -99.90      -99.90      -99.90      -99.90      -99.90      -99.90    
       -99.90      -99.90      -99.90      -99.90      -99.90      -99.90      -99.90      -99.90      -99.90      -99.90    
  12   -99.90      -99.90      -99.90      -99.90      -99.90      -99.90      -99.90      -99.90      -99.90      -99.90    
       -99.90      -99.90      -99.90      -99.90      -99.90      -99.90      -99.90      -99.90      -99.90      -99.90    
       -99.90      -99.90      -99.90      -99.90      -99.90      -99.90      -99.90      -99.90      -99.90      -99.90    
       -99.90      -99.90      -99.90      -99.90      -99.90      -99.90      -99.90      -99.90      -99.90      -99.90    
  13   -99.90      -99.90      -99.90      -99.90      -99.90      -99.90      -99.90      -99.90      -99.90      -99.90    
       -99.90      -99.90      -99.90      -99.90      -99.90      -99.90      -99.90      -99.90      -99.90      -99.90    
       -99.90      -99.90      -99.90      -99.90      -99.90      -99.90      -99.90      -99.90      -99.90      -99.90    
       -99.90      -99.90      -99.90      -99.90      -99.90      -99.90      -99.90      -99.90      -99.90      -99.90    
  14   -99.90      -99.90      -99.90      -99.90      -99.90      -99.90      -99.90      -99.90      -99.90      -99.90    
       -99.90      -99.90      -99.90      -99.90      -99.90      -99.90      -99.90      -99.90      -99.90      -99.90    
       -99.90      -99.90      -99.90      -99.90      -99.90      -99.90      -99.90      -99.90      -99.90      -99.90    
       -99.90      -99.90      -99.90      -99.90      -99.90      -99.90      -99.90      -99.90      -99.90      -99.90    
  15   -99.90      -99.90      -99.90      -99.90      -99.90      -99.90      -99.90      -99.90      -99.90      -99.90    
       -99.90      -99.90      -99.90      -99.90      -99.90      -99.90      -99.90      -99.90      -99.90      -99.90    
       -99.90      -99.90      -99.90      -99.90      -99.90      -99.90      -99.90      -99.90      -99.90      -99.90    
       -99.90      -99.90      -99.90      -99.90      -99.90      -99.90      -99.90      -99.90      -99.90      -99.90    
  16   -99.90      -99.90      -99.90      -99.90      -99.90      -99.90      -99.90      -99.90      -99.90      -99.90    
       -99.90      -99.90      -99.90      -99.90      -99.90      -99.90      -99.90      -99.90      -99.90      -99.90    
       -99.90      -99.90      -99.90      -99.90      -99.90      -99.90      -99.90      -99.90      -99.90      -99.90    
       -99.90      -99.90      -99.90      -99.90      -99.90      -99.90      -99.90      -99.90      -99.90      -99.90    
  17   -99.90      -99.90      -99.90      -99.90      -99.90      -99.90      -99.90      -99.90      -99.90      -99.90    
       -99.90      -99.90      -99.90      -99.90      -99.90      -99.90      -99.90      -99.90      -99.90      -99.90    
       -99.90      -99.90      -99.90      -99.90      -99.90      -99.90      -99.90      -99.90      -99.90      -99.90    
       -99.90      -99.90      -99.90      -99.90      -99.90      -99.90      -99.90      -99.90      -99.90      -99.90    
  18   -99.90      -99.90      -99.90      -99.90      -99.90      -99.90      -99.90      -99.90      -99.90      -99.90    
       -99.90      -99.90      -99.90      -99.90      -99.90      -99.90      -99.90      -99.90      -99.90      -99.90    
       -99.90      -99.90      -99.90      -99.90      -99.90      -99.90      -99.90      -99.90      -99.90      -99.90    
       -99.90      -99.90      -99.90      -99.90      -99.90      -99.90      -99.90      -99.90      -99.90      -99.90    
  19   -99.90      -99.90      -99.90      -99.90      -99.90      -99.90      -99.90      -99.90      -99.90      -99.90    
       -99.90      -99.90      -99.90      -99.90      -99.90      -99.90      -99.90      -99.90      -99.90      -99.90    
       -99.90      -99.90      -99.90      -99.90      -99.90      -99.90      -99.90      -99.90      -99.90      -99.90    
       -99.90      -99.90      -99.90      -99.90      -99.90      -99.90      -99.90      -99.90      -99.90      -99.90    
  20   -99.90      -99.90      -99.90      -99.90      -99.90      -99.90      -99.90      -99.90      -99.90      -99.90    
       -99.90      -99.90      -99.90      -99.90      -99.90      -99.90      -99.90      -99.90      -99.90      -99.90    
       -99.90      -99.90      -99.90      -99.90      -99.90      -99.90      -99.90      -99.90      -99.90      -99.90    
       -99.90      -99.90      -99.90      -99.90      -99.90      -99.90      -99.90      -99.90      -99.90      -99.90    
  21   -99.90      -99.90      -99.90      -99.90      -99.90      -99.90      -99.90      -99.90      -99.90      -99.90    
       -99.90      -99.90      -99.90      -99.90      -99.90      -99.90      -99.90      -99.90      -99.90      -99.90    
       -99.90      -99.90      -99.90      -99.90      -99.90      -99.90      -99.90      -99.90      -99.90      -99.90    
       -99.90      -99.90      -99.90      -99.90      -99.90      -99.90      -99.90      -99.90      -99.90      -99.90    
  22   -99.90      -99.90      -99.90      -99.90      -99.90      -99.90      -99.90      -99.90      -99.90      -99.90    
       -99.90      -99.90      -99.90      -99.90      -99.90      -99.90      -99.90      -99.90      -99.90      -99.90    
       -99.90      -99.90      -99.90      -99.90      -99.90      -99.90      -99.90      -99.90      -99.90      -99.90    
       -99.90      -99.90      -99.90      -99.90      -99.90      -99.90      -99.90      -99.90      -99.90      -99.90    
  23   -99.90      -99.90      -99.90      -99.90      -99.90      -99.90      -99.90      -99.90      -99.90      -99.90    
       -99.90      -99.90      -99.90      -99.90      -99.90      -99.90      -99.90      -99.90      -99.90      -99.90    
       -99.90      -99.90      -99.90      -99.90      -99.90      -99.90      -99.90      -99.90      -99.90      -99.90    
       -99.90      -99.90      -99.90      -99.90      -99.90      -99.90      -99.90      -99.90      -99.90      -99.90    
  24   -99.90      -99.90      -99.90      -99.90      -99.90      -99.90      -99.90      -99.90      -99.90      -99.90    
       -99.90      -99.90      -99.90      -99.90      -99.90      -99.90      -99.90      -99.90      -99.90      -99.90    
       -99.90      -99.90      -99.90      -99.90      -99.90      -99.90      -99.90      -99.90      -99.90      -99.90    
       -99.90      -99.90      -99.90      -99.90      -99.90      -99.90      -99.90      -99.90      -99.90      -99.90    
  25   -99.90      -99.90      -99.90      -99.90      -99.90      -99.90      -99.90      -99.90      -99.90      -99.90    
       -99.90      -99.90      -99.90      -99.90      -99.90      -99.90      -99.90      -99.90      -99.90      -99.90    
       -99.90      -99.90      -99.90      -99.90      -99.90      -99.90      -99.90      -99.90      -99.90      -99.90    
       -99.90      -99.90      -99.90      -99.90      -99.90      -99.90      -99.90      -99.90      -99.90      -99.90    
  26   -99.90      -99.90      -99.90      -99.90      -99.90      -99.90      -99.90      -99.90      -99.90      -99.90    
       -99.90      -99.90      -99.90      -99.90      -99.90      -99.90      -99.90      -99.90      -99.90      -99.90    
       -99.90      -99.90      -99.90      -99.90      -99.90      -99.90      -99.90      -99.90      -99.90      -99.90    
       -99.90      -99.90      -99.90      -99.90      -99.90      -99.90      -99.90      -99.90      -99.90      -99.90    
  27   -99.90      -99.90      -99.90      -99.90      -99.90      -99.90      -99.90      -99.90      -99.90      -99.90    
       -99.90      -99.90      -99.90      -99.90      -99.90      -99.90      -99.90      -99.90      -99.90      -99.90    
       -99.90      -99.90      -99.90      -99.90      -99.90      -99.90      -99.90      -99.90      -99.90      -99.90    
       -99.90      -99.90      -99.90      -99.90      -99.90      -99.90      -99.90      -99.90      -99.90      -99.90    
  28   -99.90      -99.90      -99.90      -99.90      -99.90      -99.90      -99.90      -99.90      -99.90      -99.90    
       -99.90      -99.90      -99.90      -99.90      -99.90      -99.90      -99.90      -99.90      -99.90      -99.90    
       -99.90      -99.90      -99.90      -99.90      -99.90      -99.90      -99.90      -99.90      -99.90      -99.90    
       -99.90      -99.90      -99.90      -99.90      -99.90      -99.90      -99.90      -99.90      -99.90      -99.90    
  29   -99.90      -99.90      -99.90      -99.90      -99.90      -99.90      -99.90      -99.90      -99.90      -99.90    
       -99.90      -99.90      -99.90      -99.90      -99.90      -99.90      -99.90      -99.90      -99.90      -99.90    
       -99.90      -99.90      -99.90      -99.90      -99.90      -99.90      -99.90      -99.90      -99.90      -99.90    
       -99.90      -99.90      -99.90      -99.90      -99.90      -99.90      -99.90      -99.90      -99.90      -99.90    
  30   -99.90      -99.90      -99.90      -99.90      -99.90      -99.90      -99.90      -99.90      -99.90      -99.90    
       -99.90      -99.90      -99.90      -99.90      -99.90      -99.90      -99.90      -99.90      -99.90      -99.90    
       -99.90      -99.90      -99.90      -99.90      -99.90      -99.90      -99.90      -99.90      -99.90      -99.90    
       -99.90      -99.90      -99.90      -99.90      -99.90      -99.90      -99.90      -99.90      -99.90      -99.90    
  31   -99.90      -99.90      -99.90      -99.90      -99.90      -99.90      -99.90      -99.90      -99.90      -99.90    
       -99.90      -99.90      -99.90      -99.90      -99.90      -99.90      -99.90      -99.90      -99.90      -99.90    
       -99.90      -99.90      -99.90      -99.90      -99.90      -99.90      -99.90      -99.90      -99.90      -99.90    
       -99.90      -99.90      -99.90      -99.90      -99.90      -99.90      -99.90      -99.90      -99.90      -99.90    
  32   -99.90      -99.90      -99.90      -99.90      -99.90      -99.90      -99.90      -99.90      -99.90      -99.90    
       -99.90      -99.90      -99.90      -99.90      -99.90      -99.90      -99.90      -99.90      -99.90      -99.90    
       -99.90      -99.90      -99.90      -99.90      -99.90      -99.90      -99.90      -99.90      -99.90      -99.90    
       -99.90      -99.90      -99.90      -99.90      -99.90      -99.90      -99.90      -99.90      -99.90      -99.90    
  33   -99.90      -99.90      -99.90      -99.90      -99.90      -99.90      -99.90      -99.90      -99.90      -99.90    
       -99.90      -99.90      -99.90      -99.90      -99.90      -99.90      -99.90      -99.90      -99.90      -99.90    
       -99.90      -99.90      -99.90      -99.90      -99.90      -99.90      -99.90      -99.90      -99.90      -99.90    
       -99.90      -99.90      -99.90      -99.90      -99.90      -99.90      -99.90      -99.90      -99.90      -99.90    
  34   -99.90      -99.90      -99.90      -99.90      -99.90      -99.90      -99.90      -99.90      -99.90      -99.90    
       -99.90      -99.90      -99.90      -99.90      -99.90      -99.90      -99.90      -99.90      -99.90      -99.90    
       -99.90      -99.90      -99.90      -99.90      -99.90      -99.90      -99.90      -99.90      -99.90      -99.90    
       -99.90      -99.90      -99.90      -99.90      -99.90      -99.90      -99.90      -99.90      -99.90      -99.90    
  35   -99.90      -99.90      -99.90      -99.90      -99.90      -99.90      -99.90      -99.90      -99.90      -99.90    
       -99.90      -99.90      -99.90      -99.90      -99.90      -99.90      -99.90      -99.90      -99.90      -99.90    
       -99.90      -99.90      -99.90      -99.90      -99.90      -99.90      -99.90      -99.90      -99.90      -99.90    
       -99.90      -99.90      -99.90      -99.90      -99.90      -99.90      -99.90      -99.90      -99.90      -99.90    
  36   -99.90      -99.90      -99.90      -99.90      -99.90      -99.90      -99.90      -99.90      -99.90      -99.90    
       -99.90      -99.90      -99.90      -99.90      -99.90      -99.90      -99.90      -99.90      -99.90      -99.90    
       -99.90      -99.90      -99.90      -99.90      -99.90      -99.90      -99.90      -99.90      -99.90      -99.90    
       -99.90      -99.90      -99.90      -99.90      -99.90      -99.90      -99.90      -99.90      -99.90      -99.90    
  37   -99.90      -99.90      -99.90      -99.90      -99.90      -99.90      -99.90      -99.90      -99.90      -99.90    
       -99.90      -99.90      -99.90      -99.90      -99.90      -99.90      -99.90      -99.90      -99.90      -99.90    
       -99.90      -99.90      -99.90      -99.90      -99.90      -99.90      -99.90      -99.90      -99.90      -99.90    
       -99.90      -99.90      -99.90      -99.90      -99.90      -99.90      -99.90      -99.90      -99.90      -99.90    
  38   -99.90      -99.90      -99.90      -99.90      -99.90      -99.90      -99.90      -99.90      -99.90      -99.90    
       -99.90      -99.90      -99.90      -99.90      -99.90      -99.90      -99.90      -99.90      -99.90      -99.90    
       -99.90      -99.90      -99.90      -99.90      -99.90      -99.90      -99.90      -99.90      -99.90      -99.90    
       -99.90      -99.90      -99.90      -99.90      -99.90      -99.90      -99.90      -99.90      -99.90      -99.90    
  39   -99.90      -99.90      -99.90      -99.90      -99.90      -99.90      -99.90      -99.90      -99.90      -99.90    
       -99.90      -99.90      -99.90      -99.90      -99.90      -99.90      -99.90      -99.90      -99.90      -99.90    
       -99.90      -99.90      -99.90      -99.90      -99.90      -99.90      -99.90      -99.90      -99.90      -99.90    
       -99.90      -99.90      -99.90      -99.90      -99.90      -99.90      -99.90      -99.90      -99.90      -99.90    
  40   -99.90      -99.90      -99.90      -99.90      -99.90      -99.90      -99.90      -99.90      -99.90      -99.90    
       -99.90      -99.90      -99.90      -99.90      -99.90      -99.90      -99.90      -99.90      -99.90      -99.90    
       -99.90      -99.90      -99.90      -99.90      -99.90      -99.90      -99.90      -99.90      -99.90      -99.90    
       -99.90      -99.90      -99.90      -99.90      -99.90      -99.90      -99.90      -99.90      -99.90      -99.90    
1
              HEAD IN LAYER   6 AT END OF TIME STEP   2 IN STRESS PERIOD    3
  ---------------------------------------------------------------------------

            1           2           3           4           5           6           7           8           9          10
           11          12          13          14          15          16          17          18          19          20
           21          22          23          24          25          26          27          28          29          30
           31          32          33          34          35          36          37          38          39          40
 ........................................................................................................................
   1    49.15       47.67       41.65      -99.90      -99.90      -99.90      -99.90      -99.90      -99.90      -99.90    
       -99.90      -99.90      -99.90      -99.90      -99.90      -99.90      -99.90      -99.90      -99.90      -99.90    
       -99.90      -99.90      -99.90      -99.90      -99.90      -99.90      -99.90      -99.90      -99.90      -99.90    
       -99.90      -99.90      -99.90      -99.90      -99.90      -99.90      -99.90      -99.90      -99.90      -99.90    
   2    47.67       46.45       40.53      -99.90      -99.90      -99.90      -99.90      -99.90      -99.90      -99.90    
       -99.90      -99.90      -99.90      -99.90      -99.90      -99.90      -99.90      -99.90      -99.90      -99.90    
       -99.90      -99.90      -99.90      -99.90      -99.90      -99.90      -99.90      -99.90      -99.90      -99.90    
       -99.90      -99.90      -99.90      -99.90      -99.90      -99.90      -99.90      -99.90      -99.90      -99.90    
   3    41.65       40.53      -99.90      -99.90      -99.90      -99.90      -99.90      -99.90      -99.90      -99.90    
       -99.90      -99.90      -99.90      -99.90      -99.90      -99.90      -99.90      -99.90      -99.90      -99.90    
       -99.90      -99.90      -99.90      -99.90      -99.90      -99.90      -99.90      -99.90      -99.90      -99.90    
       -99.90      -99.90      -99.90      -99.90      -99.90      -99.90      -99.90      -99.90      -99.90      -99.90    
   4   -99.90      -99.90      -99.90      -99.90      -99.90      -99.90      -99.90      -99.90      -99.90      -99.90    
       -99.90      -99.90      -99.90      -99.90      -99.90      -99.90      -99.90      -99.90      -99.90      -99.90    
       -99.90      -99.90      -99.90      -99.90      -99.90      -99.90      -99.90      -99.90      -99.90      -99.90    
       -99.90      -99.90      -99.90      -99.90      -99.90      -99.90      -99.90      -99.90      -99.90      -99.90    
   5   -99.90      -99.90      -99.90      -99.90      -99.90      -99.90      -99.90      -99.90      -99.90      -99.90    
       -99.90      -99.90      -99.90      -99.90      -99.90      -99.90      -99.90      -99.90      -99.90      -99.90    
       -99.90      -99.90      -99.90      -99.90      -99.90      -99.90      -99.90      -99.90      -99.90      -99.90    
       -99.90      -99.90      -99.90      -99.90      -99.90      -99.90      -99.90      -99.90      -99.90      -99.90    
   6   -99.90      -99.90      -99.90      -99.90      -99.90      -99.90      -99.90      -99.90      -99.90      -99.90    
       -99.90      -99.90      -99.90      -99.90      -99.90      -99.90      -99.90      -99.90      -99.90      -99.90    
       -99.90      -99.90      -99.90      -99.90      -99.90      -99.90      -99.90      -99.90      -99.90      -99.90    
       -99.90      -99.90      -99.90      -99.90      -99.90      -99.90      -99.90      -99.90      -99.90      -99.90    
   7   -99.90      -99.90      -99.90      -99.90      -99.90      -99.90      -99.90      -99.90      -99.90      -99.90    
       -99.90      -99.90      -99.90      -99.90      -99.90      -99.90      -99.90      -99.90      -99.90      -99.90    
       -99.90      -99.90      -99.90      -99.90      -99.90      -99.90      -99.90      -99.90      -99.90      -99.90    
       -99.90      -99.90      -99.90      -99.90      -99.90      -99.90      -99.90      -99.90      -99.90      -99.90    
   8   -99.90      -99.90      -99.90      -99.90      -99.90      -99.90      -99.90      -99.90      -99.90      -99.90    
       -99.90      -99.90      -99.90      -99.90      -99.90      -99.90      -99.90      -99.90      -99.90      -99.90    
       -99.90      -99.90      -99.90      -99.90      -99.90      -99.90      -99.90      -99.90      -99.90      -99.90    
       -99.90      -99.90      -99.90      -99.90      -99.90      -99.90      -99.90      -99.90      -99.90      -99.90    
   9   -99.90      -99.90      -99.90      -99.90      -99.90      -99.90      -99.90      -99.90      -99.90      -99.90    
       -99.90      -99.90      -99.90      -99.90      -99.90      -99.90      -99.90      -99.90      -99.90      -99.90    
       -99.90      -99.90      -99.90      -99.90      -99.90      -99.90      -99.90      -99.90      -99.90      -99.90    
       -99.90      -99.90      -99.90      -99.90      -99.90      -99.90      -99.90      -99.90      -99.90      -99.90    
  10   -99.90      -99.90      -99.90      -99.90      -99.90      -99.90      -99.90      -99.90      -99.90      -99.90    
       -99.90      -99.90      -99.90      -99.90      -99.90      -99.90      -99.90      -99.90      -99.90      -99.90    
       -99.90      -99.90      -99.90      -99.90      -99.90      -99.90      -99.90      -99.90      -99.90      -99.90    
       -99.90      -99.90      -99.90      -99.90      -99.90      -99.90      -99.90      -99.90      -99.90      -99.90    
  11   -99.90      -99.90      -99.90      -99.90      -99.90      -99.90      -99.90      -99.90      -99.90      -99.90    
       -99.90      -99.90      -99.90      -99.90      -99.90      -99.90      -99.90      -99.90      -99.90      -99.90    
       -99.90      -99.90      -99.90      -99.90      -99.90      -99.90      -99.90      -99.90      -99.90      -99.90    
       -99.90      -99.90      -99.90      -99.90      -99.90      -99.90      -99.90      -99.90      -99.90      -99.90    
  12   -99.90      -99.90      -99.90      -99.90      -99.90      -99.90      -99.90      -99.90      -99.90      -99.90    
       -99.90      -99.90      -99.90      -99.90      -99.90      -99.90      -99.90      -99.90      -99.90      -99.90    
       -99.90      -99.90      -99.90      -99.90      -99.90      -99.90      -99.90      -99.90      -99.90      -99.90    
       -99.90      -99.90      -99.90      -99.90      -99.90      -99.90      -99.90      -99.90      -99.90      -99.90    
  13   -99.90      -99.90      -99.90      -99.90      -99.90      -99.90      -99.90      -99.90      -99.90      -99.90    
       -99.90      -99.90      -99.90      -99.90      -99.90      -99.90      -99.90      -99.90      -99.90      -99.90    
       -99.90      -99.90      -99.90      -99.90      -99.90      -99.90      -99.90      -99.90      -99.90      -99.90    
       -99.90      -99.90      -99.90      -99.90      -99.90      -99.90      -99.90      -99.90      -99.90      -99.90    
  14   -99.90      -99.90      -99.90      -99.90      -99.90      -99.90      -99.90      -99.90      -99.90      -99.90    
       -99.90      -99.90      -99.90      -99.90      -99.90      -99.90      -99.90      -99.90      -99.90      -99.90    
       -99.90      -99.90      -99.90      -99.90      -99.90      -99.90      -99.90      -99.90      -99.90      -99.90    
       -99.90      -99.90      -99.90      -99.90      -99.90      -99.90      -99.90      -99.90      -99.90      -99.90    
  15   -99.90      -99.90      -99.90      -99.90      -99.90      -99.90      -99.90      -99.90      -99.90      -99.90    
       -99.90      -99.90      -99.90      -99.90      -99.90      -99.90      -99.90      -99.90      -99.90      -99.90    
       -99.90      -99.90      -99.90      -99.90      -99.90      -99.90      -99.90      -99.90      -99.90      -99.90    
       -99.90      -99.90      -99.90      -99.90      -99.90      -99.90      -99.90      -99.90      -99.90      -99.90    
  16   -99.90      -99.90      -99.90      -99.90      -99.90      -99.90      -99.90      -99.90      -99.90      -99.90    
       -99.90      -99.90      -99.90      -99.90      -99.90      -99.90      -99.90      -99.90      -99.90      -99.90    
       -99.90      -99.90      -99.90      -99.90      -99.90      -99.90      -99.90      -99.90      -99.90      -99.90    
       -99.90      -99.90      -99.90      -99.90      -99.90      -99.90      -99.90      -99.90      -99.90      -99.90    
  17   -99.90      -99.90      -99.90      -99.90      -99.90      -99.90      -99.90      -99.90      -99.90      -99.90    
       -99.90      -99.90      -99.90      -99.90      -99.90      -99.90      -99.90      -99.90      -99.90      -99.90    
       -99.90      -99.90      -99.90      -99.90      -99.90      -99.90      -99.90      -99.90      -99.90      -99.90    
       -99.90      -99.90      -99.90      -99.90      -99.90      -99.90      -99.90      -99.90      -99.90      -99.90    
  18   -99.90      -99.90      -99.90      -99.90      -99.90      -99.90      -99.90      -99.90      -99.90      -99.90    
       -99.90      -99.90      -99.90      -99.90      -99.90      -99.90      -99.90      -99.90      -99.90      -99.90    
       -99.90      -99.90      -99.90      -99.90      -99.90      -99.90      -99.90      -99.90      -99.90      -99.90    
       -99.90      -99.90      -99.90      -99.90      -99.90      -99.90      -99.90      -99.90      -99.90      -99.90    
  19   -99.90      -99.90      -99.90      -99.90      -99.90      -99.90      -99.90      -99.90      -99.90      -99.90    
       -99.90      -99.90      -99.90      -99.90      -99.90      -99.90      -99.90      -99.90      -99.90      -99.90    
       -99.90      -99.90      -99.90      -99.90      -99.90      -99.90      -99.90      -99.90      -99.90      -99.90    
       -99.90      -99.90      -99.90      -99.90      -99.90      -99.90      -99.90      -99.90      -99.90      -99.90    
  20   -99.90      -99.90      -99.90      -99.90      -99.90      -99.90      -99.90      -99.90      -99.90      -99.90    
       -99.90      -99.90      -99.90      -99.90      -99.90      -99.90      -99.90      -99.90      -99.90      -99.90    
       -99.90      -99.90      -99.90      -99.90      -99.90      -99.90      -99.90      -99.90      -99.90      -99.90    
       -99.90      -99.90      -99.90      -99.90      -99.90      -99.90      -99.90      -99.90      -99.90      -99.90    
  21   -99.90      -99.90      -99.90      -99.90      -99.90      -99.90      -99.90      -99.90      -99.90      -99.90    
       -99.90      -99.90      -99.90      -99.90      -99.90      -99.90      -99.90      -99.90      -99.90      -99.90    
       -99.90      -99.90      -99.90      -99.90      -99.90      -99.90      -99.90      -99.90      -99.90      -99.90    
       -99.90      -99.90      -99.90      -99.90      -99.90      -99.90      -99.90      -99.90      -99.90      -99.90    
  22   -99.90      -99.90      -99.90      -99.90      -99.90      -99.90      -99.90      -99.90      -99.90      -99.90    
       -99.90      -99.90      -99.90      -99.90      -99.90      -99.90      -99.90      -99.90      -99.90      -99.90    
       -99.90      -99.90      -99.90      -99.90      -99.90      -99.90      -99.90      -99.90      -99.90      -99.90    
       -99.90      -99.90      -99.90      -99.90      -99.90      -99.90      -99.90      -99.90      -99.90      -99.90    
  23   -99.90      -99.90      -99.90      -99.90      -99.90      -99.90      -99.90      -99.90      -99.90      -99.90    
       -99.90      -99.90      -99.90      -99.90      -99.90      -99.90      -99.90      -99.90      -99.90      -99.90    
       -99.90      -99.90      -99.90      -99.90      -99.90      -99.90      -99.90      -99.90      -99.90      -99.90    
       -99.90      -99.90      -99.90      -99.90      -99.90      -99.90      -99.90      -99.90      -99.90      -99.90    
  24   -99.90      -99.90      -99.90      -99.90      -99.90      -99.90      -99.90      -99.90      -99.90      -99.90    
       -99.90      -99.90      -99.90      -99.90      -99.90      -99.90      -99.90      -99.90      -99.90      -99.90    
       -99.90      -99.90      -99.90      -99.90      -99.90      -99.90      -99.90      -99.90      -99.90      -99.90    
       -99.90      -99.90      -99.90      -99.90      -99.90      -99.90      -99.90      -99.90      -99.90      -99.90    
  25   -99.90      -99.90      -99.90      -99.90      -99.90      -99.90      -99.90      -99.90      -99.90      -99.90    
       -99.90      -99.90      -99.90      -99.90      -99.90      -99.90      -99.90      -99.90      -99.90      -99.90    
       -99.90      -99.90      -99.90      -99.90      -99.90      -99.90      -99.90      -99.90      -99.90      -99.90    
       -99.90      -99.90      -99.90      -99.90      -99.90      -99.90      -99.90      -99.90      -99.90      -99.90    
  26   -99.90      -99.90      -99.90      -99.90      -99.90      -99.90      -99.90      -99.90      -99.90      -99.90    
       -99.90      -99.90      -99.90      -99.90      -99.90      -99.90      -99.90      -99.90      -99.90      -99.90    
       -99.90      -99.90      -99.90      -99.90      -99.90      -99.90      -99.90      -99.90      -99.90      -99.90    
       -99.90      -99.90      -99.90      -99.90      -99.90      -99.90      -99.90      -99.90      -99.90      -99.90    
  27   -99.90      -99.90      -99.90      -99.90      -99.90      -99.90      -99.90      -99.90      -99.90      -99.90    
       -99.90      -99.90      -99.90      -99.90      -99.90      -99.90      -99.90      -99.90      -99.90      -99.90    
       -99.90      -99.90      -99.90      -99.90      -99.90      -99.90      -99.90      -99.90      -99.90      -99.90    
       -99.90      -99.90      -99.90      -99.90      -99.90      -99.90      -99.90      -99.90      -99.90      -99.90    
  28   -99.90      -99.90      -99.90      -99.90      -99.90      -99.90      -99.90      -99.90      -99.90      -99.90    
       -99.90      -99.90      -99.90      -99.90      -99.90      -99.90      -99.90      -99.90      -99.90      -99.90    
       -99.90      -99.90      -99.90      -99.90      -99.90      -99.90      -99.90      -99.90      -99.90      -99.90    
       -99.90      -99.90      -99.90      -99.90      -99.90      -99.90      -99.90      -99.90      -99.90      -99.90    
  29   -99.90      -99.90      -99.90      -99.90      -99.90      -99.90      -99.90      -99.90      -99.90      -99.90    
       -99.90      -99.90      -99.90      -99.90      -99.90      -99.90      -99.90      -99.90      -99.90      -99.90    
       -99.90      -99.90      -99.90      -99.90      -99.90      -99.90      -99.90      -99.90      -99.90      -99.90    
       -99.90      -99.90      -99.90      -99.90      -99.90      -99.90      -99.90      -99.90      -99.90      -99.90    
  30   -99.90      -99.90      -99.90      -99.90      -99.90      -99.90      -99.90      -99.90      -99.90      -99.90    
       -99.90      -99.90      -99.90      -99.90      -99.90      -99.90      -99.90      -99.90      -99.90      -99.90    
       -99.90      -99.90      -99.90      -99.90      -99.90      -99.90      -99.90      -99.90      -99.90      -99.90    
       -99.90      -99.90      -99.90      -99.90      -99.90      -99.90      -99.90      -99.90      -99.90      -99.90    
  31   -99.90      -99.90      -99.90      -99.90      -99.90      -99.90      -99.90      -99.90      -99.90      -99.90    
       -99.90      -99.90      -99.90      -99.90      -99.90      -99.90      -99.90      -99.90      -99.90      -99.90    
       -99.90      -99.90      -99.90      -99.90      -99.90      -99.90      -99.90      -99.90      -99.90      -99.90    
       -99.90      -99.90      -99.90      -99.90      -99.90      -99.90      -99.90      -99.90      -99.90      -99.90    
  32   -99.90      -99.90      -99.90      -99.90      -99.90      -99.90      -99.90      -99.90      -99.90      -99.90    
       -99.90      -99.90      -99.90      -99.90      -99.90      -99.90      -99.90      -99.90      -99.90      -99.90    
       -99.90      -99.90      -99.90      -99.90      -99.90      -99.90      -99.90      -99.90      -99.90      -99.90    
       -99.90      -99.90      -99.90      -99.90      -99.90      -99.90      -99.90      -99.90      -99.90      -99.90    
  33   -99.90      -99.90      -99.90      -99.90      -99.90      -99.90      -99.90      -99.90      -99.90      -99.90    
       -99.90      -99.90      -99.90      -99.90      -99.90      -99.90      -99.90      -99.90      -99.90      -99.90    
       -99.90      -99.90      -99.90      -99.90      -99.90      -99.90      -99.90      -99.90      -99.90      -99.90    
       -99.90      -99.90      -99.90      -99.90      -99.90      -99.90      -99.90      -99.90      -99.90      -99.90    
  34   -99.90      -99.90      -99.90      -99.90      -99.90      -99.90      -99.90      -99.90      -99.90      -99.90    
       -99.90      -99.90      -99.90      -99.90      -99.90      -99.90      -99.90      -99.90      -99.90      -99.90    
       -99.90      -99.90      -99.90      -99.90      -99.90      -99.90      -99.90      -99.90      -99.90      -99.90    
       -99.90      -99.90      -99.90      -99.90      -99.90      -99.90      -99.90      -99.90      -99.90      -99.90    
  35   -99.90      -99.90      -99.90      -99.90      -99.90      -99.90      -99.90      -99.90      -99.90      -99.90    
       -99.90      -99.90      -99.90      -99.90      -99.90      -99.90      -99.90      -99.90      -99.90      -99.90    
       -99.90      -99.90      -99.90      -99.90      -99.90      -99.90      -99.90      -99.90      -99.90      -99.90    
       -99.90      -99.90      -99.90      -99.90      -99.90      -99.90      -99.90      -99.90      -99.90      -99.90    
  36   -99.90      -99.90      -99.90      -99.90      -99.90      -99.90      -99.90      -99.90      -99.90      -99.90    
       -99.90      -99.90      -99.90      -99.90      -99.90      -99.90      -99.90      -99.90      -99.90      -99.90    
       -99.90      -99.90      -99.90      -99.90      -99.90      -99.90      -99.90      -99.90      -99.90      -99.90    
       -99.90      -99.90      -99.90      -99.90      -99.90      -99.90      -99.90      -99.90      -99.90      -99.90    
  37   -99.90      -99.90      -99.90      -99.90      -99.90      -99.90      -99.90      -99.90      -99.90      -99.90    
       -99.90      -99.90      -99.90      -99.90      -99.90      -99.90      -99.90      -99.90      -99.90      -99.90    
       -99.90      -99.90      -99.90      -99.90      -99.90      -99.90      -99.90      -99.90      -99.90      -99.90    
       -99.90      -99.90      -99.90      -99.90      -99.90      -99.90      -99.90      -99.90      -99.90      -99.90    
  38   -99.90      -99.90      -99.90      -99.90      -99.90      -99.90      -99.90      -99.90      -99.90      -99.90    
       -99.90      -99.90      -99.90      -99.90      -99.90      -99.90      -99.90      -99.90      -99.90      -99.90    
       -99.90      -99.90      -99.90      -99.90      -99.90      -99.90      -99.90      -99.90      -99.90      -99.90    
       -99.90      -99.90      -99.90      -99.90      -99.90      -99.90      -99.90      -99.90      -99.90      -99.90    
  39   -99.90      -99.90      -99.90      -99.90      -99.90      -99.90      -99.90      -99.90      -99.90      -99.90    
       -99.90      -99.90      -99.90      -99.90      -99.90      -99.90      -99.90      -99.90      -99.90      -99.90    
       -99.90      -99.90      -99.90      -99.90      -99.90      -99.90      -99.90      -99.90      -99.90      -99.90    
       -99.90      -99.90      -99.90      -99.90      -99.90      -99.90      -99.90      -99.90      -99.90      -99.90    
  40   -99.90      -99.90      -99.90      -99.90      -99.90      -99.90      -99.90      -99.90      -99.90      -99.90    
       -99.90      -99.90      -99.90      -99.90      -99.90      -99.90      -99.90      -99.90      -99.90      -99.90    
       -99.90      -99.90      -99.90      -99.90      -99.90      -99.90      -99.90      -99.90      -99.90      -99.90    
       -99.90      -99.90      -99.90      -99.90      -99.90      -99.90      -99.90      -99.90      -99.90      -99.90    
1
              HEAD IN LAYER   7 AT END OF TIME STEP   2 IN STRESS PERIOD    3
  ---------------------------------------------------------------------------

            1           2           3           4           5           6           7           8           9          10
           11          12          13          14          15          16          17          18          19          20
           21          22          23          24          25          26          27          28          29          30
           31          32          33          34          35          36          37          38          39          40
 ........................................................................................................................
   1    48.34       46.76       41.59       38.28       35.73      -99.90      -99.90      -99.90      -99.90      -99.90    
       -99.90      -99.90      -99.90      -99.90      -99.90      -99.90      -99.90      -99.90      -99.90      -99.90    
       -99.90      -99.90      -99.90      -99.90      -99.90      -99.90      -99.90      -99.90      -99.90      -99.90    
       -99.90      -99.90      -99.90      -99.90      -99.90      -99.90      -99.90      -99.90      -99.90      -99.90    
   2    46.76       45.42       40.51       37.62      -99.90      -99.90      -99.90      -99.90      -99.90      -99.90    
       -99.90      -99.90      -99.90      -99.90      -99.90      -99.90      -99.90      -99.90      -99.90      -99.90    
       -99.90      -99.90      -99.90      -99.90      -99.90      -99.90      -99.90      -99.90      -99.90      -99.90    
       -99.90      -99.90      -99.90      -99.90      -99.90      -99.90      -99.90      -99.90      -99.90      -99.90    
   3    41.59       40.51       38.39       36.33      -99.90      -99.90      -99.90      -99.90      -99.90      -99.90    
       -99.90      -99.90      -99.90      -99.90      -99.90      -99.90      -99.90      -99.90      -99.90      -99.90    
       -99.90      -99.90      -99.90      -99.90      -99.90      -99.90      -99.90      -99.90      -99.90      -99.90    
       -99.90      -99.90      -99.90      -99.90      -99.90      -99.90      -99.90      -99.90      -99.90      -99.90    
   4    38.28       37.62       36.33      -99.90      -99.90      -99.90      -99.90      -99.90      -99.90      -99.90    
       -99.90      -99.90      -99.90      -99.90      -99.90      -99.90      -99.90      -99.90      -99.90      -99.90    
       -99.90      -99.90      -99.90      -99.90      -99.90      -99.90      -99.90      -99.90      -99.90      -99.90    
       -99.90      -99.90      -99.90      -99.90      -99.90      -99.90      -99.90      -99.90      -99.90      -99.90    
   5    35.73      -99.90      -99.90      -99.90      -99.90      -99.90      -99.90      -99.90      -99.90      -99.90    
       -99.90      -99.90      -99.90      -99.90      -99.90      -99.90      -99.90      -99.90      -99.90      -99.90    
       -99.90      -99.90      -99.90      -99.90      -99.90      -99.90      -99.90      -99.90      -99.90      -99.90    
       -99.90      -99.90      -99.90      -99.90      -99.90      -99.90      -99.90      -99.90      -99.90      -99.90    
   6   -99.90      -99.90      -99.90      -99.90      -99.90      -99.90      -99.90      -99.90      -99.90      -99.90    
       -99.90      -99.90      -99.90      -99.90      -99.90      -99.90      -99.90      -99.90      -99.90      -99.90    
       -99.90      -99.90      -99.90      -99.90      -99.90      -99.90      -99.90      -99.90      -99.90      -99.90    
       -99.90      -99.90      -99.90      -99.90      -99.90      -99.90      -99.90      -99.90      -99.90      -99.90    
   7   -99.90      -99.90      -99.90      -99.90      -99.90      -99.90      -99.90      -99.90      -99.90      -99.90    
       -99.90      -99.90      -99.90      -99.90      -99.90      -99.90      -99.90      -99.90      -99.90      -99.90    
       -99.90      -99.90      -99.90      -99.90      -99.90      -99.90      -99.90      -99.90      -99.90      -99.90    
       -99.90      -99.90      -99.90      -99.90      -99.90      -99.90      -99.90      -99.90      -99.90      -99.90    
   8   -99.90      -99.90      -99.90      -99.90      -99.90      -99.90      -99.90      -99.90      -99.90      -99.90    
       -99.90      -99.90      -99.90      -99.90      -99.90      -99.90      -99.90      -99.90      -99.90      -99.90    
       -99.90      -99.90      -99.90      -99.90      -99.90      -99.90      -99.90      -99.90      -99.90      -99.90    
       -99.90      -99.90      -99.90      -99.90      -99.90      -99.90      -99.90      -99.90      -99.90      -99.90    
   9   -99.90      -99.90      -99.90      -99.90      -99.90      -99.90      -99.90      -99.90      -99.90      -99.90    
       -99.90      -99.90      -99.90      -99.90      -99.90      -99.90      -99.90      -99.90      -99.90      -99.90    
       -99.90      -99.90      -99.90      -99.90      -99.90      -99.90      -99.90      -99.90      -99.90      -99.90    
       -99.90      -99.90      -99.90      -99.90      -99.90      -99.90      -99.90      -99.90      -99.90      -99.90    
  10   -99.90      -99.90      -99.90      -99.90      -99.90      -99.90      -99.90      -99.90      -99.90      -99.90    
       -99.90      -99.90      -99.90      -99.90      -99.90      -99.90      -99.90      -99.90      -99.90      -99.90    
       -99.90      -99.90      -99.90      -99.90      -99.90      -99.90      -99.90      -99.90      -99.90      -99.90    
       -99.90      -99.90      -99.90      -99.90      -99.90      -99.90      -99.90      -99.90      -99.90      -99.90    
  11   -99.90      -99.90      -99.90      -99.90      -99.90      -99.90      -99.90      -99.90      -99.90      -99.90    
       -99.90      -99.90      -99.90      -99.90      -99.90      -99.90      -99.90      -99.90      -99.90      -99.90    
       -99.90      -99.90      -99.90      -99.90      -99.90      -99.90      -99.90      -99.90      -99.90      -99.90    
       -99.90      -99.90      -99.90      -99.90      -99.90      -99.90      -99.90      -99.90      -99.90      -99.90    
  12   -99.90      -99.90      -99.90      -99.90      -99.90      -99.90      -99.90      -99.90      -99.90      -99.90    
       -99.90      -99.90      -99.90      -99.90      -99.90      -99.90      -99.90      -99.90      -99.90      -99.90    
       -99.90      -99.90      -99.90      -99.90      -99.90      -99.90      -99.90      -99.90      -99.90      -99.90    
       -99.90      -99.90      -99.90      -99.90      -99.90      -99.90      -99.90      -99.90      -99.90      -99.90    
  13   -99.90      -99.90      -99.90      -99.90      -99.90      -99.90      -99.90      -99.90      -99.90      -99.90    
       -99.90      -99.90      -99.90      -99.90      -99.90      -99.90      -99.90      -99.90      -99.90      -99.90    
       -99.90      -99.90      -99.90      -99.90      -99.90      -99.90      -99.90      -99.90      -99.90      -99.90    
       -99.90      -99.90      -99.90      -99.90      -99.90      -99.90      -99.90      -99.90      -99.90      -99.90    
  14   -99.90      -99.90      -99.90      -99.90      -99.90      -99.90      -99.90      -99.90      -99.90      -99.90    
       -99.90      -99.90      -99.90      -99.90      -99.90      -99.90      -99.90      -99.90      -99.90      -99.90    
       -99.90      -99.90      -99.90      -99.90      -99.90      -99.90      -99.90      -99.90      -99.90      -99.90    
       -99.90      -99.90      -99.90      -99.90      -99.90      -99.90      -99.90      -99.90      -99.90      -99.90    
  15   -99.90      -99.90      -99.90      -99.90      -99.90      -99.90      -99.90      -99.90      -99.90      -99.90    
       -99.90      -99.90      -99.90      -99.90      -99.90      -99.90      -99.90      -99.90      -99.90      -99.90    
       -99.90      -99.90      -99.90      -99.90      -99.90      -99.90      -99.90      -99.90      -99.90      -99.90    
       -99.90      -99.90      -99.90      -99.90      -99.90      -99.90      -99.90      -99.90      -99.90      -99.90    
  16   -99.90      -99.90      -99.90      -99.90      -99.90      -99.90      -99.90      -99.90      -99.90      -99.90    
       -99.90      -99.90      -99.90      -99.90      -99.90      -99.90      -99.90      -99.90      -99.90      -99.90    
       -99.90      -99.90      -99.90      -99.90      -99.90      -99.90      -99.90      -99.90      -99.90      -99.90    
       -99.90      -99.90      -99.90      -99.90      -99.90      -99.90      -99.90      -99.90      -99.90      -99.90    
  17   -99.90      -99.90      -99.90      -99.90      -99.90      -99.90      -99.90      -99.90      -99.90      -99.90    
       -99.90      -99.90      -99.90      -99.90      -99.90      -99.90      -99.90      -99.90      -99.90      -99.90    
       -99.90      -99.90      -99.90      -99.90      -99.90      -99.90      -99.90      -99.90      -99.90      -99.90    
       -99.90      -99.90      -99.90      -99.90      -99.90      -99.90      -99.90      -99.90      -99.90      -99.90    
  18   -99.90      -99.90      -99.90      -99.90      -99.90      -99.90      -99.90      -99.90      -99.90      -99.90    
       -99.90      -99.90      -99.90      -99.90      -99.90      -99.90      -99.90      -99.90      -99.90      -99.90    
       -99.90      -99.90      -99.90      -99.90      -99.90      -99.90      -99.90      -99.90      -99.90      -99.90    
       -99.90      -99.90      -99.90      -99.90      -99.90      -99.90      -99.90      -99.90      -99.90      -99.90    
  19   -99.90      -99.90      -99.90      -99.90      -99.90      -99.90      -99.90      -99.90      -99.90      -99.90    
       -99.90      -99.90      -99.90      -99.90      -99.90      -99.90      -99.90      -99.90      -99.90      -99.90    
       -99.90      -99.90      -99.90      -99.90      -99.90      -99.90      -99.90      -99.90      -99.90      -99.90    
       -99.90      -99.90      -99.90      -99.90      -99.90      -99.90      -99.90      -99.90      -99.90      -99.90    
  20   -99.90      -99.90      -99.90      -99.90      -99.90      -99.90      -99.90      -99.90      -99.90      -99.90    
       -99.90      -99.90      -99.90      -99.90      -99.90      -99.90      -99.90      -99.90      -99.90      -99.90    
       -99.90      -99.90      -99.90      -99.90      -99.90      -99.90      -99.90      -99.90      -99.90      -99.90    
       -99.90      -99.90      -99.90      -99.90      -99.90      -99.90      -99.90      -99.90      -99.90      -99.90    
  21   -99.90      -99.90      -99.90      -99.90      -99.90      -99.90      -99.90      -99.90      -99.90      -99.90    
       -99.90      -99.90      -99.90      -99.90      -99.90      -99.90      -99.90      -99.90      -99.90      -99.90    
       -99.90      -99.90      -99.90      -99.90      -99.90      -99.90      -99.90      -99.90      -99.90      -99.90    
       -99.90      -99.90      -99.90      -99.90      -99.90      -99.90      -99.90      -99.90      -99.90      -99.90    
  22   -99.90      -99.90      -99.90      -99.90      -99.90      -99.90      -99.90      -99.90      -99.90      -99.90    
       -99.90      -99.90      -99.90      -99.90      -99.90      -99.90      -99.90      -99.90      -99.90      -99.90    
       -99.90      -99.90      -99.90      -99.90      -99.90      -99.90      -99.90      -99.90      -99.90      -99.90    
       -99.90      -99.90      -99.90      -99.90      -99.90      -99.90      -99.90      -99.90      -99.90      -99.90    
  23   -99.90      -99.90      -99.90      -99.90      -99.90      -99.90      -99.90      -99.90      -99.90      -99.90    
       -99.90      -99.90      -99.90      -99.90      -99.90      -99.90      -99.90      -99.90      -99.90      -99.90    
       -99.90      -99.90      -99.90      -99.90      -99.90      -99.90      -99.90      -99.90      -99.90      -99.90    
       -99.90      -99.90      -99.90      -99.90      -99.90      -99.90      -99.90      -99.90      -99.90      -99.90    
  24   -99.90      -99.90      -99.90      -99.90      -99.90      -99.90      -99.90      -99.90      -99.90      -99.90    
       -99.90      -99.90      -99.90      -99.90      -99.90      -99.90      -99.90      -99.90      -99.90      -99.90    
       -99.90      -99.90      -99.90      -99.90      -99.90      -99.90      -99.90      -99.90      -99.90      -99.90    
       -99.90      -99.90      -99.90      -99.90      -99.90      -99.90      -99.90      -99.90      -99.90      -99.90    
  25   -99.90      -99.90      -99.90      -99.90      -99.90      -99.90      -99.90      -99.90      -99.90      -99.90    
       -99.90      -99.90      -99.90      -99.90      -99.90      -99.90      -99.90      -99.90      -99.90      -99.90    
       -99.90      -99.90      -99.90      -99.90      -99.90      -99.90      -99.90      -99.90      -99.90      -99.90    
       -99.90      -99.90      -99.90      -99.90      -99.90      -99.90      -99.90      -99.90      -99.90      -99.90    
  26   -99.90      -99.90      -99.90      -99.90      -99.90      -99.90      -99.90      -99.90      -99.90      -99.90    
       -99.90      -99.90      -99.90      -99.90      -99.90      -99.90      -99.90      -99.90      -99.90      -99.90    
       -99.90      -99.90      -99.90      -99.90      -99.90      -99.90      -99.90      -99.90      -99.90      -99.90    
       -99.90      -99.90      -99.90      -99.90      -99.90      -99.90      -99.90      -99.90      -99.90      -99.90    
  27   -99.90      -99.90      -99.90      -99.90      -99.90      -99.90      -99.90      -99.90      -99.90      -99.90    
       -99.90      -99.90      -99.90      -99.90      -99.90      -99.90      -99.90      -99.90      -99.90      -99.90    
       -99.90      -99.90      -99.90      -99.90      -99.90      -99.90      -99.90      -99.90      -99.90      -99.90    
       -99.90      -99.90      -99.90      -99.90      -99.90      -99.90      -99.90      -99.90      -99.90      -99.90    
  28   -99.90      -99.90      -99.90      -99.90      -99.90      -99.90      -99.90      -99.90      -99.90      -99.90    
       -99.90      -99.90      -99.90      -99.90      -99.90      -99.90      -99.90      -99.90      -99.90      -99.90    
       -99.90      -99.90      -99.90      -99.90      -99.90      -99.90      -99.90      -99.90      -99.90      -99.90    
       -99.90      -99.90      -99.90      -99.90      -99.90      -99.90      -99.90      -99.90      -99.90      -99.90    
  29   -99.90      -99.90      -99.90      -99.90      -99.90      -99.90      -99.90      -99.90      -99.90      -99.90    
       -99.90      -99.90      -99.90      -99.90      -99.90      -99.90      -99.90      -99.90      -99.90      -99.90    
       -99.90      -99.90      -99.90      -99.90      -99.90      -99.90      -99.90      -99.90      -99.90      -99.90    
       -99.90      -99.90      -99.90      -99.90      -99.90      -99.90      -99.90      -99.90      -99.90      -99.90    
  30   -99.90      -99.90      -99.90      -99.90      -99.90      -99.90      -99.90      -99.90      -99.90      -99.90    
       -99.90      -99.90      -99.90      -99.90      -99.90      -99.90      -99.90      -99.90      -99.90      -99.90    
       -99.90      -99.90      -99.90      -99.90      -99.90      -99.90      -99.90      -99.90      -99.90      -99.90    
       -99.90      -99.90      -99.90      -99.90      -99.90      -99.90      -99.90      -99.90      -99.90      -99.90    
  31   -99.90      -99.90      -99.90      -99.90      -99.90      -99.90      -99.90      -99.90      -99.90      -99.90    
       -99.90      -99.90      -99.90      -99.90      -99.90      -99.90      -99.90      -99.90      -99.90      -99.90    
       -99.90      -99.90      -99.90      -99.90      -99.90      -99.90      -99.90      -99.90      -99.90      -99.90    
       -99.90      -99.90      -99.90      -99.90      -99.90      -99.90      -99.90      -99.90      -99.90      -99.90    
  32   -99.90      -99.90      -99.90      -99.90      -99.90      -99.90      -99.90      -99.90      -99.90      -99.90    
       -99.90      -99.90      -99.90      -99.90      -99.90      -99.90      -99.90      -99.90      -99.90      -99.90    
       -99.90      -99.90      -99.90      -99.90      -99.90      -99.90      -99.90      -99.90      -99.90      -99.90    
       -99.90      -99.90      -99.90      -99.90      -99.90      -99.90      -99.90      -99.90      -99.90      -99.90    
  33   -99.90      -99.90      -99.90      -99.90      -99.90      -99.90      -99.90      -99.90      -99.90      -99.90    
       -99.90      -99.90      -99.90      -99.90      -99.90      -99.90      -99.90      -99.90      -99.90      -99.90    
       -99.90      -99.90      -99.90      -99.90      -99.90      -99.90      -99.90      -99.90      -99.90      -99.90    
       -99.90      -99.90      -99.90      -99.90      -99.90      -99.90      -99.90      -99.90      -99.90      -99.90    
  34   -99.90      -99.90      -99.90      -99.90      -99.90      -99.90      -99.90      -99.90      -99.90      -99.90    
       -99.90      -99.90      -99.90      -99.90      -99.90      -99.90      -99.90      -99.90      -99.90      -99.90    
       -99.90      -99.90      -99.90      -99.90      -99.90      -99.90      -99.90      -99.90      -99.90      -99.90    
       -99.90      -99.90      -99.90      -99.90      -99.90      -99.90      -99.90      -99.90      -99.90      -99.90    
  35   -99.90      -99.90      -99.90      -99.90      -99.90      -99.90      -99.90      -99.90      -99.90      -99.90    
       -99.90      -99.90      -99.90      -99.90      -99.90      -99.90      -99.90      -99.90      -99.90      -99.90    
       -99.90      -99.90      -99.90      -99.90      -99.90      -99.90      -99.90      -99.90      -99.90      -99.90    
       -99.90      -99.90      -99.90      -99.90      -99.90      -99.90      -99.90      -99.90      -99.90      -99.90    
  36   -99.90      -99.90      -99.90      -99.90      -99.90      -99.90      -99.90      -99.90      -99.90      -99.90    
       -99.90      -99.90      -99.90      -99.90      -99.90      -99.90      -99.90      -99.90      -99.90      -99.90    
       -99.90      -99.90      -99.90      -99.90      -99.90      -99.90      -99.90      -99.90      -99.90      -99.90    
       -99.90      -99.90      -99.90      -99.90      -99.90      -99.90      -99.90      -99.90      -99.90      -99.90    
  37   -99.90      -99.90      -99.90      -99.90      -99.90      -99.90      -99.90      -99.90      -99.90      -99.90    
       -99.90      -99.90      -99.90      -99.90      -99.90      -99.90      -99.90      -99.90      -99.90      -99.90    
       -99.90      -99.90      -99.90      -99.90      -99.90      -99.90      -99.90      -99.90      -99.90      -99.90    
       -99.90      -99.90      -99.90      -99.90      -99.90      -99.90      -99.90      -99.90      -99.90      -99.90    
  38   -99.90      -99.90      -99.90      -99.90      -99.90      -99.90      -99.90      -99.90      -99.90      -99.90    
       -99.90      -99.90      -99.90      -99.90      -99.90      -99.90      -99.90      -99.90      -99.90      -99.90    
       -99.90      -99.90      -99.90      -99.90      -99.90      -99.90      -99.90      -99.90      -99.90      -99.90    
       -99.90      -99.90      -99.90      -99.90      -99.90      -99.90      -99.90      -99.90      -99.90      -99.90    
  39   -99.90      -99.90      -99.90      -99.90      -99.90      -99.90      -99.90      -99.90      -99.90      -99.90    
       -99.90      -99.90      -99.90      -99.90      -99.90      -99.90      -99.90      -99.90      -99.90      -99.90    
       -99.90      -99.90      -99.90      -99.90      -99.90      -99.90      -99.90      -99.90      -99.90      -99.90    
       -99.90      -99.90      -99.90      -99.90      -99.90      -99.90      -99.90      -99.90      -99.90      -99.90    
  40   -99.90      -99.90      -99.90      -99.90      -99.90      -99.90      -99.90      -99.90      -99.90      -99.90    
       -99.90      -99.90      -99.90      -99.90      -99.90      -99.90      -99.90      -99.90      -99.90      -99.90    
       -99.90      -99.90      -99.90      -99.90      -99.90      -99.90      -99.90      -99.90      -99.90      -99.90    
       -99.90      -99.90      -99.90      -99.90      -99.90      -99.90      -99.90      -99.90      -99.90      -99.90    
1
              HEAD IN LAYER   8 AT END OF TIME STEP   2 IN STRESS PERIOD    3
  ---------------------------------------------------------------------------

            1           2           3           4           5           6           7           8           9          10
           11          12          13          14          15          16          17          18          19          20
           21          22          23          24          25          26          27          28          29          30
           31          32          33          34          35          36          37          38          39          40
 ........................................................................................................................
   1    47.63       46.01       41.48       38.25       35.74       33.73       32.09       30.71      -99.90      -99.90    
       -99.90      -99.90      -99.90      -99.90      -99.90      -99.90      -99.90      -99.90      -99.90      -99.90    
       -99.90      -99.90      -99.90      -99.90      -99.90      -99.90      -99.90      -99.90      -99.90      -99.90    
       -99.90      -99.90      -99.90      -99.90      -99.90      -99.90      -99.90      -99.90      -99.90      -99.90    
   2    46.01       44.61       40.42       37.59       35.27       33.42       31.86       30.56      -99.90      -99.90    
       -99.90      -99.90      -99.90      -99.90      -99.90      -99.90      -99.90      -99.90      -99.90      -99.90    
       -99.90      -99.90      -99.90      -99.90      -99.90      -99.90      -99.90      -99.90      -99.90      -99.90    
       -99.90      -99.90      -99.90      -99.90      -99.90      -99.90      -99.90      -99.90      -99.90      -99.90    
   3    41.48       40.42       38.36       36.32       34.44       32.84       31.46      -99.90      -99.90      -99.90    
       -99.90      -99.90      -99.90      -99.90      -99.90      -99.90      -99.90      -99.90      -99.90      -99.90    
       -99.90      -99.90      -99.90      -99.90      -99.90      -99.90      -99.90      -99.90      -99.90      -99.90    
       -99.90      -99.90      -99.90      -99.90      -99.90      -99.90      -99.90      -99.90      -99.90      -99.90    
   4    38.25       37.59       36.32       34.84       33.42       32.09       30.88      -99.90      -99.90      -99.90    
       -99.90      -99.90      -99.90      -99.90      -99.90      -99.90      -99.90      -99.90      -99.90      -99.90    
       -99.90      -99.90      -99.90      -99.90      -99.90      -99.90      -99.90      -99.90      -99.90      -99.90    
       -99.90      -99.90      -99.90      -99.90      -99.90      -99.90      -99.90      -99.90      -99.90      -99.90    
   5    35.74       35.27       34.44       33.42       32.33       31.28      -99.90      -99.90      -99.90      -99.90    
       -99.90      -99.90      -99.90      -99.90      -99.90      -99.90      -99.90      -99.90      -99.90      -99.90    
       -99.90      -99.90      -99.90      -99.90      -99.90      -99.90      -99.90      -99.90      -99.90      -99.90    
       -99.90      -99.90      -99.90      -99.90      -99.90      -99.90      -99.90      -99.90      -99.90      -99.90    
   6    33.73       33.42       32.84       32.09       31.28      -99.90      -99.90      -99.90      -99.90      -99.90    
       -99.90      -99.90      -99.90      -99.90      -99.90      -99.90      -99.90      -99.90      -99.90      -99.90    
       -99.90      -99.90      -99.90      -99.90      -99.90      -99.90      -99.90      -99.90      -99.90      -99.90    
       -99.90      -99.90      -99.90      -99.90      -99.90      -99.90      -99.90      -99.90      -99.90      -99.90    
   7    32.09       31.86       31.46       30.88      -99.90      -99.90      -99.90      -99.90      -99.90      -99.90    
       -99.90      -99.90      -99.90      -99.90      -99.90      -99.90      -99.90      -99.90      -99.90      -99.90    
       -99.90      -99.90      -99.90      -99.90      -99.90      -99.90      -99.90      -99.90      -99.90      -99.90    
       -99.90      -99.90      -99.90      -99.90      -99.90      -99.90      -99.90      -99.90      -99.90      -99.90    
   8    30.71       30.56      -99.90      -99.90      -99.90      -99.90      -99.90      -99.90      -99.90      -99.90    
       -99.90      -99.90      -99.90      -99.90      -99.90      -99.90      -99.90      -99.90      -99.90      -99.90    
       -99.90      -99.90      -99.90      -99.90      -99.90      -99.90      -99.90      -99.90      -99.90      -99.90    
       -99.90      -99.90      -99.90      -99.90      -99.90      -99.90      -99.90      -99.90      -99.90      -99.90    
   9   -99.90      -99.90      -99.90      -99.90      -99.90      -99.90      -99.90      -99.90      -99.90      -99.90    
       -99.90      -99.90      -99.90      -99.90      -99.90      -99.90      -99.90      -99.90      -99.90      -99.90    
       -99.90      -99.90      -99.90      -99.90      -99.90      -99.90      -99.90      -99.90      -99.90      -99.90    
       -99.90      -99.90      -99.90      -99.90      -99.90      -99.90      -99.90      -99.90      -99.90      -99.90    
  10   -99.90      -99.90      -99.90      -99.90      -99.90      -99.90      -99.90      -99.90      -99.90      -99.90    
       -99.90      -99.90      -99.90      -99.90      -99.90      -99.90      -99.90      -99.90      -99.90      -99.90    
       -99.90      -99.90      -99.90      -99.90      -99.90      -99.90      -99.90      -99.90      -99.90      -99.90    
       -99.90      -99.90      -99.90      -99.90      -99.90      -99.90      -99.90      -99.90      -99.90      -99.90    
  11   -99.90      -99.90      -99.90      -99.90      -99.90      -99.90      -99.90      -99.90      -99.90      -99.90    
       -99.90      -99.90      -99.90      -99.90      -99.90      -99.90      -99.90      -99.90      -99.90      -99.90    
       -99.90      -99.90      -99.90      -99.90      -99.90      -99.90      -99.90      -99.90      -99.90      -99.90    
       -99.90      -99.90      -99.90      -99.90      -99.90      -99.90      -99.90      -99.90      -99.90      -99.90    
  12   -99.90      -99.90      -99.90      -99.90      -99.90      -99.90      -99.90      -99.90      -99.90      -99.90    
       -99.90      -99.90      -99.90      -99.90      -99.90      -99.90      -99.90      -99.90      -99.90      -99.90    
       -99.90      -99.90      -99.90      -99.90      -99.90      -99.90      -99.90      -99.90      -99.90      -99.90    
       -99.90      -99.90      -99.90      -99.90      -99.90      -99.90      -99.90      -99.90      -99.90      -99.90    
  13   -99.90      -99.90      -99.90      -99.90      -99.90      -99.90      -99.90      -99.90      -99.90      -99.90    
       -99.90      -99.90      -99.90      -99.90      -99.90      -99.90      -99.90      -99.90      -99.90      -99.90    
       -99.90      -99.90      -99.90      -99.90      -99.90      -99.90      -99.90      -99.90      -99.90      -99.90    
       -99.90      -99.90      -99.90      -99.90      -99.90      -99.90      -99.90      -99.90      -99.90      -99.90    
  14   -99.90      -99.90      -99.90      -99.90      -99.90      -99.90      -99.90      -99.90      -99.90      -99.90    
       -99.90      -99.90      -99.90      -99.90      -99.90      -99.90      -99.90      -99.90      -99.90      -99.90    
       -99.90      -99.90      -99.90      -99.90      -99.90      -99.90      -99.90      -99.90      -99.90      -99.90    
       -99.90      -99.90      -99.90      -99.90      -99.90      -99.90      -99.90      -99.90      -99.90      -99.90    
  15   -99.90      -99.90      -99.90      -99.90      -99.90      -99.90      -99.90      -99.90      -99.90      -99.90    
       -99.90      -99.90      -99.90      -99.90      -99.90      -99.90      -99.90      -99.90      -99.90      -99.90    
       -99.90      -99.90      -99.90      -99.90      -99.90      -99.90      -99.90      -99.90      -99.90      -99.90    
       -99.90      -99.90      -99.90      -99.90      -99.90      -99.90      -99.90      -99.90      -99.90      -99.90    
  16   -99.90      -99.90      -99.90      -99.90      -99.90      -99.90      -99.90      -99.90      -99.90      -99.90    
       -99.90      -99.90      -99.90      -99.90      -99.90      -99.90      -99.90      -99.90      -99.90      -99.90    
       -99.90      -99.90      -99.90      -99.90      -99.90      -99.90      -99.90      -99.90      -99.90      -99.90    
       -99.90      -99.90      -99.90      -99.90      -99.90      -99.90      -99.90      -99.90      -99.90      -99.90    
  17   -99.90      -99.90      -99.90      -99.90      -99.90      -99.90      -99.90      -99.90      -99.90      -99.90    
       -99.90      -99.90      -99.90      -99.90      -99.90      -99.90      -99.90      -99.90      -99.90      -99.90    
       -99.90      -99.90      -99.90      -99.90      -99.90      -99.90      -99.90      -99.90      -99.90      -99.90    
       -99.90      -99.90      -99.90      -99.90      -99.90      -99.90      -99.90      -99.90      -99.90      -99.90    
  18   -99.90      -99.90      -99.90      -99.90      -99.90      -99.90      -99.90      -99.90      -99.90      -99.90    
       -99.90      -99.90      -99.90      -99.90      -99.90      -99.90      -99.90      -99.90      -99.90      -99.90    
       -99.90      -99.90      -99.90      -99.90      -99.90      -99.90      -99.90      -99.90      -99.90      -99.90    
       -99.90      -99.90      -99.90      -99.90      -99.90      -99.90      -99.90      -99.90      -99.90      -99.90    
  19   -99.90      -99.90      -99.90      -99.90      -99.90      -99.90      -99.90      -99.90      -99.90      -99.90    
       -99.90      -99.90      -99.90      -99.90      -99.90      -99.90      -99.90      -99.90      -99.90      -99.90    
       -99.90      -99.90      -99.90      -99.90      -99.90      -99.90      -99.90      -99.90      -99.90      -99.90    
       -99.90      -99.90      -99.90      -99.90      -99.90      -99.90      -99.90      -99.90      -99.90      -99.90    
  20   -99.90      -99.90      -99.90      -99.90      -99.90      -99.90      -99.90      -99.90      -99.90      -99.90    
       -99.90      -99.90      -99.90      -99.90      -99.90      -99.90      -99.90      -99.90      -99.90      -99.90    
       -99.90      -99.90      -99.90      -99.90      -99.90      -99.90      -99.90      -99.90      -99.90      -99.90    
       -99.90      -99.90      -99.90      -99.90      -99.90      -99.90      -99.90      -99.90      -99.90      -99.90    
  21   -99.90      -99.90      -99.90      -99.90      -99.90      -99.90      -99.90      -99.90      -99.90      -99.90    
       -99.90      -99.90      -99.90      -99.90      -99.90      -99.90      -99.90      -99.90      -99.90      -99.90    
       -99.90      -99.90      -99.90      -99.90      -99.90      -99.90      -99.90      -99.90      -99.90      -99.90    
       -99.90      -99.90      -99.90      -99.90      -99.90      -99.90      -99.90      -99.90      -99.90      -99.90    
  22   -99.90      -99.90      -99.90      -99.90      -99.90      -99.90      -99.90      -99.90      -99.90      -99.90    
       -99.90      -99.90      -99.90      -99.90      -99.90      -99.90      -99.90      -99.90      -99.90      -99.90    
       -99.90      -99.90      -99.90      -99.90      -99.90      -99.90      -99.90      -99.90      -99.90      -99.90    
       -99.90      -99.90      -99.90      -99.90      -99.90      -99.90      -99.90      -99.90      -99.90      -99.90    
  23   -99.90      -99.90      -99.90      -99.90      -99.90      -99.90      -99.90      -99.90      -99.90      -99.90    
       -99.90      -99.90      -99.90      -99.90      -99.90      -99.90      -99.90      -99.90      -99.90      -99.90    
       -99.90      -99.90      -99.90      -99.90      -99.90      -99.90      -99.90      -99.90      -99.90      -99.90    
       -99.90      -99.90      -99.90      -99.90      -99.90      -99.90      -99.90      -99.90      -99.90      -99.90    
  24   -99.90      -99.90      -99.90      -99.90      -99.90      -99.90      -99.90      -99.90      -99.90      -99.90    
       -99.90      -99.90      -99.90      -99.90      -99.90      -99.90      -99.90      -99.90      -99.90      -99.90    
       -99.90      -99.90      -99.90      -99.90      -99.90      -99.90      -99.90      -99.90      -99.90      -99.90    
       -99.90      -99.90      -99.90      -99.90      -99.90      -99.90      -99.90      -99.90      -99.90      -99.90    
  25   -99.90      -99.90      -99.90      -99.90      -99.90      -99.90      -99.90      -99.90      -99.90      -99.90    
       -99.90      -99.90      -99.90      -99.90      -99.90      -99.90      -99.90      -99.90      -99.90      -99.90    
       -99.90      -99.90      -99.90      -99.90      -99.90      -99.90      -99.90      -99.90      -99.90      -99.90    
       -99.90      -99.90      -99.90      -99.90      -99.90      -99.90      -99.90      -99.90      -99.90      -99.90    
  26   -99.90      -99.90      -99.90      -99.90      -99.90      -99.90      -99.90      -99.90      -99.90      -99.90    
       -99.90      -99.90      -99.90      -99.90      -99.90      -99.90      -99.90      -99.90      -99.90      -99.90    
       -99.90      -99.90      -99.90      -99.90      -99.90      -99.90      -99.90      -99.90      -99.90      -99.90    
       -99.90      -99.90      -99.90      -99.90      -99.90      -99.90      -99.90      -99.90      -99.90      -99.90    
  27   -99.90      -99.90      -99.90      -99.90      -99.90      -99.90      -99.90      -99.90      -99.90      -99.90    
       -99.90      -99.90      -99.90      -99.90      -99.90      -99.90      -99.90      -99.90      -99.90      -99.90    
       -99.90      -99.90      -99.90      -99.90      -99.90      -99.90      -99.90      -99.90      -99.90      -99.90    
       -99.90      -99.90      -99.90      -99.90      -99.90      -99.90      -99.90      -99.90      -99.90      -99.90    
  28   -99.90      -99.90      -99.90      -99.90      -99.90      -99.90      -99.90      -99.90      -99.90      -99.90    
       -99.90      -99.90      -99.90      -99.90      -99.90      -99.90      -99.90      -99.90      -99.90      -99.90    
       -99.90      -99.90      -99.90      -99.90      -99.90      -99.90      -99.90      -99.90      -99.90      -99.90    
       -99.90      -99.90      -99.90      -99.90      -99.90      -99.90      -99.90      -99.90      -99.90      -99.90    
  29   -99.90      -99.90      -99.90      -99.90      -99.90      -99.90      -99.90      -99.90      -99.90      -99.90    
       -99.90      -99.90      -99.90      -99.90      -99.90      -99.90      -99.90      -99.90      -99.90      -99.90    
       -99.90      -99.90      -99.90      -99.90      -99.90      -99.90      -99.90      -99.90      -99.90      -99.90    
       -99.90      -99.90      -99.90      -99.90      -99.90      -99.90      -99.90      -99.90      -99.90      -99.90    
  30   -99.90      -99.90      -99.90      -99.90      -99.90      -99.90      -99.90      -99.90      -99.90      -99.90    
       -99.90      -99.90      -99.90      -99.90      -99.90      -99.90      -99.90      -99.90      -99.90      -99.90    
       -99.90      -99.90      -99.90      -99.90      -99.90      -99.90      -99.90      -99.90      -99.90      -99.90    
       -99.90      -99.90      -99.90      -99.90      -99.90      -99.90      -99.90      -99.90      -99.90      -99.90    
  31   -99.90      -99.90      -99.90      -99.90      -99.90      -99.90      -99.90      -99.90      -99.90      -99.90    
       -99.90      -99.90      -99.90      -99.90      -99.90      -99.90      -99.90      -99.90      -99.90      -99.90    
       -99.90      -99.90      -99.90      -99.90      -99.90      -99.90      -99.90      -99.90      -99.90      -99.90    
       -99.90      -99.90      -99.90      -99.90      -99.90      -99.90      -99.90      -99.90      -99.90      -99.90    
  32   -99.90      -99.90      -99.90      -99.90      -99.90      -99.90      -99.90      -99.90      -99.90      -99.90    
       -99.90      -99.90      -99.90      -99.90      -99.90      -99.90      -99.90      -99.90      -99.90      -99.90    
       -99.90      -99.90      -99.90      -99.90      -99.90      -99.90      -99.90      -99.90      -99.90      -99.90    
       -99.90      -99.90      -99.90      -99.90      -99.90      -99.90      -99.90      -99.90      -99.90      -99.90    
  33   -99.90      -99.90      -99.90      -99.90      -99.90      -99.90      -99.90      -99.90      -99.90      -99.90    
       -99.90      -99.90      -99.90      -99.90      -99.90      -99.90      -99.90      -99.90      -99.90      -99.90    
       -99.90      -99.90      -99.90      -99.90      -99.90      -99.90      -99.90      -99.90      -99.90      -99.90    
       -99.90      -99.90      -99.90      -99.90      -99.90      -99.90      -99.90      -99.90      -99.90      -99.90    
  34   -99.90      -99.90      -99.90      -99.90      -99.90      -99.90      -99.90      -99.90      -99.90      -99.90    
       -99.90      -99.90      -99.90      -99.90      -99.90      -99.90      -99.90      -99.90      -99.90      -99.90    
       -99.90      -99.90      -99.90      -99.90      -99.90      -99.90      -99.90      -99.90      -99.90      -99.90    
       -99.90      -99.90      -99.90      -99.90      -99.90      -99.90      -99.90      -99.90      -99.90      -99.90    
  35   -99.90      -99.90      -99.90      -99.90      -99.90      -99.90      -99.90      -99.90      -99.90      -99.90    
       -99.90      -99.90      -99.90      -99.90      -99.90      -99.90      -99.90      -99.90      -99.90      -99.90    
       -99.90      -99.90      -99.90      -99.90      -99.90      -99.90      -99.90      -99.90      -99.90      -99.90    
       -99.90      -99.90      -99.90      -99.90      -99.90      -99.90      -99.90      -99.90      -99.90      -99.90    
  36   -99.90      -99.90      -99.90      -99.90      -99.90      -99.90      -99.90      -99.90      -99.90      -99.90    
       -99.90      -99.90      -99.90      -99.90      -99.90      -99.90      -99.90      -99.90      -99.90      -99.90    
       -99.90      -99.90      -99.90      -99.90      -99.90      -99.90      -99.90      -99.90      -99.90      -99.90    
       -99.90      -99.90      -99.90      -99.90      -99.90      -99.90      -99.90      -99.90      -99.90      -99.90    
  37   -99.90      -99.90      -99.90      -99.90      -99.90      -99.90      -99.90      -99.90      -99.90      -99.90    
       -99.90      -99.90      -99.90      -99.90      -99.90      -99.90      -99.90      -99.90      -99.90      -99.90    
       -99.90      -99.90      -99.90      -99.90      -99.90      -99.90      -99.90      -99.90      -99.90      -99.90    
       -99.90      -99.90      -99.90      -99.90      -99.90      -99.90      -99.90      -99.90      -99.90      -99.90    
  38   -99.90      -99.90      -99.90      -99.90      -99.90      -99.90      -99.90      -99.90      -99.90      -99.90    
       -99.90      -99.90      -99.90      -99.90      -99.90      -99.90      -99.90      -99.90      -99.90      -99.90    
       -99.90      -99.90      -99.90      -99.90      -99.90      -99.90      -99.90      -99.90      -99.90      -99.90    
       -99.90      -99.90      -99.90      -99.90      -99.90      -99.90      -99.90      -99.90      -99.90      -99.90    
  39   -99.90      -99.90      -99.90      -99.90      -99.90      -99.90      -99.90      -99.90      -99.90      -99.90    
       -99.90      -99.90      -99.90      -99.90      -99.90      -99.90      -99.90      -99.90      -99.90      -99.90    
       -99.90      -99.90      -99.90      -99.90      -99.90      -99.90      -99.90      -99.90      -99.90      -99.90    
       -99.90      -99.90      -99.90      -99.90      -99.90      -99.90      -99.90      -99.90      -99.90      -99.90    
  40   -99.90      -99.90      -99.90      -99.90      -99.90      -99.90      -99.90      -99.90      -99.90      -99.90    
       -99.90      -99.90      -99.90      -99.90      -99.90      -99.90      -99.90      -99.90      -99.90      -99.90    
       -99.90      -99.90      -99.90      -99.90      -99.90      -99.90      -99.90      -99.90      -99.90      -99.90    
       -99.90      -99.90      -99.90      -99.90      -99.90      -99.90      -99.90      -99.90      -99.90      -99.90    
1
              HEAD IN LAYER   9 AT END OF TIME STEP   2 IN STRESS PERIOD    3
  ---------------------------------------------------------------------------

            1           2           3           4           5           6           7           8           9          10
           11          12          13          14          15          16          17          18          19          20
           21          22          23          24          25          26          27          28          29          30
           31          32          33          34          35          36          37          38          39          40
 ........................................................................................................................
   1    47.02       45.40       41.37       38.23       35.74       33.74       32.10       30.73       29.60       28.69    
        27.94       27.34       26.85       26.46       26.16       25.91       25.72       25.57       25.44       25.32    
       -99.90      -99.90      -99.90      -99.90      -99.90      -99.90      -99.90      -99.90      -99.90      -99.90    
       -99.90      -99.90      -99.90      -99.90      -99.90      -99.90      -99.90      -99.90      -99.90      -99.90    
   2    45.40       43.99       40.33       37.56       35.28       33.42       31.87       30.57       29.49       28.60    
        27.88       27.29       26.82       26.44       26.14       25.90       25.71       25.56       25.43       25.32    
       -99.90      -99.90      -99.90      -99.90      -99.90      -99.90      -99.90      -99.90      -99.90      -99.90    
       -99.90      -99.90      -99.90      -99.90      -99.90      -99.90      -99.90      -99.90      -99.90      -99.90    
   3    41.37       40.33       38.32       36.30       34.45       32.85       31.46       30.28       29.27       28.44    
        27.76       27.20       26.75       26.39       26.10       25.87       25.69       25.54       25.42       25.31    
       -99.90      -99.90      -99.90      -99.90      -99.90      -99.90      -99.90      -99.90      -99.90      -99.90    
       -99.90      -99.90      -99.90      -99.90      -99.90      -99.90      -99.90      -99.90      -99.90      -99.90    
   4    38.23       37.56       36.30       34.84       33.42       32.10       30.89       29.85       28.96       28.21    
        27.59       27.07       26.66       26.32       26.05       25.83       25.66       25.52       25.40       25.29    
       -99.90      -99.90      -99.90      -99.90      -99.90      -99.90      -99.90      -99.90      -99.90      -99.90    
       -99.90      -99.90      -99.90      -99.90      -99.90      -99.90      -99.90      -99.90      -99.90      -99.90    
   5    35.74       35.28       34.45       33.42       32.34       31.28       30.28       29.38       28.60       27.94    
        27.38       26.92       26.54       26.23       25.99       25.79       25.62       25.49       25.34       25.28    
       -99.90      -99.90      -99.90      -99.90      -99.90      -99.90      -99.90      -99.90      -99.90      -99.90    
       -99.90      -99.90      -99.90      -99.90      -99.90      -99.90      -99.90      -99.90      -99.90      -99.90    
   6    33.74       33.42       32.85       32.10       31.28       30.44       29.61       28.87       28.21       27.64    
        27.15       26.75       26.41       26.14       25.91       25.73       25.58       25.45       25.31       25.26    
       -99.90      -99.90      -99.90      -99.90      -99.90      -99.90      -99.90      -99.90      -99.90      -99.90    
       -99.90      -99.90      -99.90      -99.90      -99.90      -99.90      -99.90      -99.90      -99.90      -99.90    
   7    32.10       31.87       31.46       30.89       30.28       29.61       28.96       28.36       27.81       27.33    
        26.92       26.57       26.27       26.03       25.83       25.67       25.53       25.41       25.29      -99.90    
       -99.90      -99.90      -99.90      -99.90      -99.90      -99.90      -99.90      -99.90      -99.90      -99.90    
       -99.90      -99.90      -99.90      -99.90      -99.90      -99.90      -99.90      -99.90      -99.90      -99.90    
   8    30.73       30.57       30.28       29.85       29.38       28.87       28.36       27.87       27.43       27.03    
        26.68       26.38       26.13       25.92       25.75       25.60       25.47       25.33       25.27      -99.90    
       -99.90      -99.90      -99.90      -99.90      -99.90      -99.90      -99.90      -99.90      -99.90      -99.90    
       -99.90      -99.90      -99.90      -99.90      -99.90      -99.90      -99.90      -99.90      -99.90      -99.90    
   9    29.60       29.49       29.27       28.96       28.60       28.21       27.81       27.43       27.07       26.74    
        26.46       26.21       26.00       25.82       25.66       25.53       25.41       25.29       25.25      -99.90    
       -99.90      -99.90      -99.90      -99.90      -99.90      -99.90      -99.90      -99.90      -99.90      -99.90    
       -99.90      -99.90      -99.90      -99.90      -99.90      -99.90      -99.90      -99.90      -99.90      -99.90    
  10    28.69       28.60       28.44       28.21       27.94       27.64       27.33       27.03       26.74       26.48    
        26.25       26.04       25.87       25.71       25.58       25.46       25.32       25.26      -99.90      -99.90    
       -99.90      -99.90      -99.90      -99.90      -99.90      -99.90      -99.90      -99.90      -99.90      -99.90    
       -99.90      -99.90      -99.90      -99.90      -99.90      -99.90      -99.90      -99.90      -99.90      -99.90    
  11    27.94       27.88       27.76       27.59       27.38       27.15       26.92       26.68       26.46       26.25    
        26.06       25.89       25.74       25.61       25.49       25.35       25.27       25.24      -99.90      -99.90    
       -99.90      -99.90      -99.90      -99.90      -99.90      -99.90      -99.90      -99.90      -99.90      -99.90    
       -99.90      -99.90      -99.90      -99.90      -99.90      -99.90      -99.90      -99.90      -99.90      -99.90    
  12    27.34       27.29       27.20       27.07       26.92       26.75       26.57       26.38       26.21       26.04    
        25.89       25.75       25.63       25.52       25.41       25.29       25.24      -99.90      -99.90      -99.90    
       -99.90      -99.90      -99.90      -99.90      -99.90      -99.90      -99.90      -99.90      -99.90      -99.90    
       -99.90      -99.90      -99.90      -99.90      -99.90      -99.90      -99.90      -99.90      -99.90      -99.90    
  13    26.85       26.82       26.75       26.66       26.54       26.41       26.27       26.13       26.00       25.87    
        25.74       25.63       25.52       25.42       25.30       25.25       25.22      -99.90      -99.90      -99.90    
       -99.90      -99.90      -99.90      -99.90      -99.90      -99.90      -99.90      -99.90      -99.90      -99.90    
       -99.90      -99.90      -99.90      -99.90      -99.90      -99.90      -99.90      -99.90      -99.90      -99.90    
  14    26.46       26.44       26.39       26.32       26.23       26.14       26.03       25.92       25.82       25.71    
        25.61       25.52       25.42       25.31       25.25       25.22      -99.90      -99.90      -99.90      -99.90    
       -99.90      -99.90      -99.90      -99.90      -99.90      -99.90      -99.90      -99.90      -99.90      -99.90    
       -99.90      -99.90      -99.90      -99.90      -99.90      -99.90      -99.90      -99.90      -99.90      -99.90    
  15    26.16       26.14       26.10       26.05       25.99       25.91       25.83       25.75       25.66       25.58    
        25.49       25.41       25.30       25.25       25.22      -99.90      -99.90      -99.90      -99.90      -99.90    
       -99.90      -99.90      -99.90      -99.90      -99.90      -99.90      -99.90      -99.90      -99.90      -99.90    
       -99.90      -99.90      -99.90      -99.90      -99.90      -99.90      -99.90      -99.90      -99.90      -99.90    
  16    25.91       25.90       25.87       25.83       25.79       25.73       25.67       25.60       25.53       25.46    
        25.35       25.29       25.25       25.22      -99.90      -99.90      -99.90      -99.90      -99.90      -99.90    
       -99.90      -99.90      -99.90      -99.90      -99.90      -99.90      -99.90      -99.90      -99.90      -99.90    
       -99.90      -99.90      -99.90      -99.90      -99.90      -99.90      -99.90      -99.90      -99.90      -99.90    
  17    25.72       25.71       25.69       25.66       25.62       25.58       25.53       25.47       25.41       25.32    
        25.27       25.24       25.22      -99.90      -99.90      -99.90      -99.90      -99.90      -99.90      -99.90    
       -99.90      -99.90      -99.90      -99.90      -99.90      -99.90      -99.90      -99.90      -99.90      -99.90    
       -99.90      -99.90      -99.90      -99.90      -99.90      -99.90      -99.90      -99.90      -99.90      -99.90    
  18    25.57       25.56       25.54       25.52       25.49       25.45       25.41       25.33       25.29       25.26    
        25.24      -99.90      -99.90      -99.90      -99.90      -99.90      -99.90      -99.90      -99.90      -99.90    
       -99.90      -99.90      -99.90      -99.90      -99.90      -99.90      -99.90      -99.90      -99.90      -99.90    
       -99.90      -99.90      -99.90      -99.90      -99.90      -99.90      -99.90      -99.90      -99.90      -99.90    
  19    25.44       25.43       25.42       25.40       25.34       25.31       25.29       25.27       25.25      -99.90    
       -99.90      -99.90      -99.90      -99.90      -99.90      -99.90      -99.90      -99.90      -99.90      -99.90    
       -99.90      -99.90      -99.90      -99.90      -99.90      -99.90      -99.90      -99.90      -99.90      -99.90    
       -99.90      -99.90      -99.90      -99.90      -99.90      -99.90      -99.90      -99.90      -99.90      -99.90    
  20    25.32       25.32       25.31       25.29       25.28       25.26      -99.90      -99.90      -99.90      -99.90    
       -99.90      -99.90      -99.90      -99.90      -99.90      -99.90      -99.90      -99.90      -99.90      -99.90    
       -99.90      -99.90      -99.90      -99.90      -99.90      -99.90      -99.90      -99.90      -99.90      -99.90    
       -99.90      -99.90      -99.90      -99.90      -99.90      -99.90      -99.90      -99.90      -99.90      -99.90    
  21   -99.90      -99.90      -99.90      -99.90      -99.90      -99.90      -99.90      -99.90      -99.90      -99.90    
       -99.90      -99.90      -99.90      -99.90      -99.90      -99.90      -99.90      -99.90      -99.90      -99.90    
       -99.90      -99.90      -99.90      -99.90      -99.90      -99.90      -99.90      -99.90      -99.90      -99.90    
       -99.90      -99.90      -99.90      -99.90      -99.90      -99.90      -99.90      -99.90      -99.90      -99.90    
  22   -99.90      -99.90      -99.90      -99.90      -99.90      -99.90      -99.90      -99.90      -99.90      -99.90    
       -99.90      -99.90      -99.90      -99.90      -99.90      -99.90      -99.90      -99.90      -99.90      -99.90    
       -99.90      -99.90      -99.90      -99.90      -99.90      -99.90      -99.90      -99.90      -99.90      -99.90    
       -99.90      -99.90      -99.90      -99.90      -99.90      -99.90      -99.90      -99.90      -99.90      -99.90    
  23   -99.90      -99.90      -99.90      -99.90      -99.90      -99.90      -99.90      -99.90      -99.90      -99.90    
       -99.90      -99.90      -99.90      -99.90      -99.90      -99.90      -99.90      -99.90      -99.90      -99.90    
       -99.90      -99.90      -99.90      -99.90      -99.90      -99.90      -99.90      -99.90      -99.90      -99.90    
       -99.90      -99.90      -99.90      -99.90      -99.90      -99.90      -99.90      -99.90      -99.90      -99.90    
  24   -99.90      -99.90      -99.90      -99.90      -99.90      -99.90      -99.90      -99.90      -99.90      -99.90    
       -99.90      -99.90      -99.90      -99.90      -99.90      -99.90      -99.90      -99.90      -99.90      -99.90    
       -99.90      -99.90      -99.90      -99.90      -99.90      -99.90      -99.90      -99.90      -99.90      -99.90    
       -99.90      -99.90      -99.90      -99.90      -99.90      -99.90      -99.90      -99.90      -99.90      -99.90    
  25   -99.90      -99.90      -99.90      -99.90      -99.90      -99.90      -99.90      -99.90      -99.90      -99.90    
       -99.90      -99.90      -99.90      -99.90      -99.90      -99.90      -99.90      -99.90      -99.90      -99.90    
       -99.90      -99.90      -99.90      -99.90      -99.90      -99.90      -99.90      -99.90      -99.90      -99.90    
       -99.90      -99.90      -99.90      -99.90      -99.90      -99.90      -99.90      -99.90      -99.90      -99.90    
  26   -99.90      -99.90      -99.90      -99.90      -99.90      -99.90      -99.90      -99.90      -99.90      -99.90    
       -99.90      -99.90      -99.90      -99.90      -99.90      -99.90      -99.90      -99.90      -99.90      -99.90    
       -99.90      -99.90      -99.90      -99.90      -99.90      -99.90      -99.90      -99.90      -99.90      -99.90    
       -99.90      -99.90      -99.90      -99.90      -99.90      -99.90      -99.90      -99.90      -99.90      -99.90    
  27   -99.90      -99.90      -99.90      -99.90      -99.90      -99.90      -99.90      -99.90      -99.90      -99.90    
       -99.90      -99.90      -99.90      -99.90      -99.90      -99.90      -99.90      -99.90      -99.90      -99.90    
       -99.90      -99.90      -99.90      -99.90      -99.90      -99.90      -99.90      -99.90      -99.90      -99.90    
       -99.90      -99.90      -99.90      -99.90      -99.90      -99.90      -99.90      -99.90      -99.90      -99.90    
  28   -99.90      -99.90      -99.90      -99.90      -99.90      -99.90      -99.90      -99.90      -99.90      -99.90    
       -99.90      -99.90      -99.90      -99.90      -99.90      -99.90      -99.90      -99.90      -99.90      -99.90    
       -99.90      -99.90      -99.90      -99.90      -99.90      -99.90      -99.90      -99.90      -99.90      -99.90    
       -99.90      -99.90      -99.90      -99.90      -99.90      -99.90      -99.90      -99.90      -99.90      -99.90    
  29   -99.90      -99.90      -99.90      -99.90      -99.90      -99.90      -99.90      -99.90      -99.90      -99.90    
       -99.90      -99.90      -99.90      -99.90      -99.90      -99.90      -99.90      -99.90      -99.90      -99.90    
       -99.90      -99.90      -99.90      -99.90      -99.90      -99.90      -99.90      -99.90      -99.90      -99.90    
       -99.90      -99.90      -99.90      -99.90      -99.90      -99.90      -99.90      -99.90      -99.90      -99.90    
  30   -99.90      -99.90      -99.90      -99.90      -99.90      -99.90      -99.90      -99.90      -99.90      -99.90    
       -99.90      -99.90      -99.90      -99.90      -99.90      -99.90      -99.90      -99.90      -99.90      -99.90    
       -99.90      -99.90      -99.90      -99.90      -99.90      -99.90      -99.90      -99.90      -99.90      -99.90    
       -99.90      -99.90      -99.90      -99.90      -99.90      -99.90      -99.90      -99.90      -99.90      -99.90    
  31   -99.90      -99.90      -99.90      -99.90      -99.90      -99.90      -99.90      -99.90      -99.90      -99.90    
       -99.90      -99.90      -99.90      -99.90      -99.90      -99.90      -99.90      -99.90      -99.90      -99.90    
       -99.90      -99.90      -99.90      -99.90      -99.90      -99.90      -99.90      -99.90      -99.90      -99.90    
       -99.90      -99.90      -99.90      -99.90      -99.90      -99.90      -99.90      -99.90      -99.90      -99.90    
  32   -99.90      -99.90      -99.90      -99.90      -99.90      -99.90      -99.90      -99.90      -99.90      -99.90    
       -99.90      -99.90      -99.90      -99.90      -99.90      -99.90      -99.90      -99.90      -99.90      -99.90    
       -99.90      -99.90      -99.90      -99.90      -99.90      -99.90      -99.90      -99.90      -99.90      -99.90    
       -99.90      -99.90      -99.90      -99.90      -99.90      -99.90      -99.90      -99.90      -99.90      -99.90    
  33   -99.90      -99.90      -99.90      -99.90      -99.90      -99.90      -99.90      -99.90      -99.90      -99.90    
       -99.90      -99.90      -99.90      -99.90      -99.90      -99.90      -99.90      -99.90      -99.90      -99.90    
       -99.90      -99.90      -99.90      -99.90      -99.90      -99.90      -99.90      -99.90      -99.90      -99.90    
       -99.90      -99.90      -99.90      -99.90      -99.90      -99.90      -99.90      -99.90      -99.90      -99.90    
  34   -99.90      -99.90      -99.90      -99.90      -99.90      -99.90      -99.90      -99.90      -99.90      -99.90    
       -99.90      -99.90      -99.90      -99.90      -99.90      -99.90      -99.90      -99.90      -99.90      -99.90    
       -99.90      -99.90      -99.90      -99.90      -99.90      -99.90      -99.90      -99.90      -99.90      -99.90    
       -99.90      -99.90      -99.90      -99.90      -99.90      -99.90      -99.90      -99.90      -99.90      -99.90    
  35   -99.90      -99.90      -99.90      -99.90      -99.90      -99.90      -99.90      -99.90      -99.90      -99.90    
       -99.90      -99.90      -99.90      -99.90      -99.90      -99.90      -99.90      -99.90      -99.90      -99.90    
       -99.90      -99.90      -99.90      -99.90      -99.90      -99.90      -99.90      -99.90      -99.90      -99.90    
       -99.90      -99.90      -99.90      -99.90      -99.90      -99.90      -99.90      -99.90      -99.90      -99.90    
  36   -99.90      -99.90      -99.90      -99.90      -99.90      -99.90      -99.90      -99.90      -99.90      -99.90    
       -99.90      -99.90      -99.90      -99.90      -99.90      -99.90      -99.90      -99.90      -99.90      -99.90    
       -99.90      -99.90      -99.90      -99.90      -99.90      -99.90      -99.90      -99.90      -99.90      -99.90    
       -99.90      -99.90      -99.90      -99.90      -99.90      -99.90      -99.90      -99.90      -99.90      -99.90    
  37   -99.90      -99.90      -99.90      -99.90      -99.90      -99.90      -99.90      -99.90      -99.90      -99.90    
       -99.90      -99.90      -99.90      -99.90      -99.90      -99.90      -99.90      -99.90      -99.90      -99.90    
       -99.90      -99.90      -99.90      -99.90      -99.90      -99.90      -99.90      -99.90      -99.90      -99.90    
       -99.90      -99.90      -99.90      -99.90      -99.90      -99.90      -99.90      -99.90      -99.90      -99.90    
  38   -99.90      -99.90      -99.90      -99.90      -99.90      -99.90      -99.90      -99.90      -99.90      -99.90    
       -99.90      -99.90      -99.90      -99.90      -99.90      -99.90      -99.90      -99.90      -99.90      -99.90    
       -99.90      -99.90      -99.90      -99.90      -99.90      -99.90      -99.90      -99.90      -99.90      -99.90    
       -99.90      -99.90      -99.90      -99.90      -99.90      -99.90      -99.90      -99.90      -99.90      -99.90    
  39   -99.90      -99.90      -99.90      -99.90      -99.90      -99.90      -99.90      -99.90      -99.90      -99.90    
       -99.90      -99.90      -99.90      -99.90      -99.90      -99.90      -99.90      -99.90      -99.90      -99.90    
       -99.90      -99.90      -99.90      -99.90      -99.90      -99.90      -99.90      -99.90      -99.90      -99.90    
       -99.90      -99.90      -99.90      -99.90      -99.90      -99.90      -99.90      -99.90      -99.90      -99.90    
  40   -99.90      -99.90      -99.90      -99.90      -99.90      -99.90      -99.90      -99.90      -99.90      -99.90    
       -99.90      -99.90      -99.90      -99.90      -99.90      -99.90      -99.90      -99.90      -99.90      -99.90    
       -99.90      -99.90      -99.90      -99.90      -99.90      -99.90      -99.90      -99.90      -99.90      -99.90    
       -99.90      -99.90      -99.90      -99.90      -99.90      -99.90      -99.90      -99.90      -99.90      -99.90    
1
              HEAD IN LAYER  10 AT END OF TIME STEP   2 IN STRESS PERIOD    3
  ---------------------------------------------------------------------------

            1           2           3           4           5           6           7           8           9          10
           11          12          13          14          15          16          17          18          19          20
           21          22          23          24          25          26          27          28          29          30
           31          32          33          34          35          36          37          38          39          40
 ........................................................................................................................
   1    46.52       44.91       41.26       38.20       35.74       33.74       32.10       30.74       29.62       28.70    
        27.95       27.35       26.86       26.47       26.16       25.92       25.73       25.57       25.44       25.33    
        25.31       25.29       25.27       25.25       25.23       25.21       25.19       25.17       25.16       25.14    
        25.13       25.11       25.10       25.08       25.07       25.06       25.04       25.03       25.01       25.00    
   2    44.91       43.51       40.23       37.53       35.28       33.43       31.88       30.58       29.50       28.62    
        27.89       27.30       26.83       26.45       26.14       25.91       25.72       25.56       25.44       25.33    
        25.31       25.29       25.26       25.24       25.23       25.21       25.19       25.17       25.16       25.14    
        25.13       25.11       25.10       25.08       25.07       25.06       25.04       25.03       25.01       25.00    
   3    41.26       40.23       38.29       36.29       34.45       32.85       31.47       30.29       29.28       28.45    
        27.77       27.21       26.76       26.40       26.11       25.88       25.70       25.55       25.42       25.32    
        25.30       25.28       25.26       25.24       25.22       25.21       25.19       25.17       25.16       25.14    
        25.13       25.11       25.10       25.08       25.07       25.05       25.04       25.03       25.01       25.00    
   4    38.20       37.53       36.29       34.85       33.43       32.11       30.91       29.86       28.98       28.22    
        27.60       27.08       26.66       26.33       26.06       25.84       25.66       25.52       25.40       25.30    
        25.29       25.27       25.26       25.24       25.22       25.20       25.19       25.17       25.15       25.14    
        25.12       25.11       25.10       25.08       25.07       25.05       25.04       25.03       25.01       25.00    
   5    35.74       35.28       34.45       33.43       32.34       31.29       30.29       29.39       28.61       27.95    
        27.39       26.93       26.55       26.24       25.99       25.79       25.63       25.49       25.35       25.29    
        25.28       25.27       25.25       25.23       25.22       25.20       25.18       25.17       25.15       25.14    
        25.12       25.11       25.10       25.08       25.07       25.05       25.04       25.03       25.01       25.00    
   6    33.74       33.43       32.85       32.11       31.29       30.45       29.63       28.88       28.22       27.65    
        27.16       26.76       26.42       26.14       25.92       25.73       25.58       25.45       25.32       25.27    
        25.27       25.26       25.24       25.23       25.21       25.20       25.18       25.16       25.15       25.14    
        25.12       25.11       25.09       25.08       25.07       25.05       25.04       25.03       25.01       25.00    
   7    32.10       31.88       31.47       30.91       30.29       29.63       28.98       28.37       27.82       27.34    
        26.93       26.57       26.28       26.04       25.84       25.67       25.53       25.41       25.30       25.28    
        25.27       25.25       25.24       25.22       25.21       25.19       25.18       25.16       25.15       25.13    
        25.12       25.11       25.09       25.08       25.07       25.05       25.04       25.03       25.01       25.00    
   8    30.74       30.58       30.29       29.86       29.39       28.88       28.37       27.88       27.44       27.04    
        26.69       26.39       26.14       25.93       25.75       25.60       25.47       25.34       25.28       25.27    
        25.26       25.24       25.23       25.21       25.20       25.19       25.17       25.16       25.14       25.13    
        25.12       25.10       25.09       25.08       25.06       25.05       25.04       25.03       25.01       25.00    
   9    29.62       29.50       29.28       28.98       28.61       28.22       27.82       27.44       27.08       26.75    
        26.46       26.22       26.00       25.82       25.67       25.53       25.41       25.30       25.26       25.26    
        25.25       25.23       25.22       25.21       25.19       25.18       25.17       25.15       25.14       25.13    
        25.11       25.10       25.09       25.08       25.06       25.05       25.04       25.03       25.01       25.00    
  10    28.70       28.62       28.45       28.22       27.95       27.65       27.34       27.04       26.75       26.49    
        26.26       26.05       25.87       25.72       25.58       25.46       25.33       25.27       25.26       25.25    
        25.24       25.23       25.21       25.20       25.19       25.18       25.16       25.15       25.14       25.12    
        25.11       25.10       25.09       25.07       25.06       25.05       25.04       25.02       25.01       25.00    
  11    27.95       27.89       27.77       27.60       27.39       27.16       26.93       26.69       26.46       26.26    
        26.07       25.90       25.75       25.61       25.49       25.36       25.28       25.24       25.25       25.24    
        25.23       25.22       25.21       25.19       25.18       25.17       25.16       25.15       25.13       25.12    
        25.11       25.10       25.08       25.07       25.06       25.05       25.04       25.02       25.01       25.00    
  12    27.35       27.30       27.21       27.08       26.93       26.76       26.57       26.39       26.22       26.05    
        25.90       25.76       25.63       25.52       25.41       25.30       25.25       25.24       25.24       25.23    
        25.22       25.21       25.20       25.19       25.18       25.16       25.15       25.14       25.13       25.12    
        25.11       25.09       25.08       25.07       25.06       25.05       25.03       25.02       25.01       25.00    
  13    26.86       26.83       26.76       26.66       26.55       26.42       26.28       26.14       26.00       25.87    
        25.75       25.63       25.52       25.42       25.31       25.25       25.23       25.23       25.23       25.22    
        25.21       25.20       25.19       25.18       25.17       25.16       25.15       25.14       25.13       25.11    
        25.10       25.09       25.08       25.07       25.06       25.05       25.03       25.02       25.01       25.00    
  14    26.47       26.45       26.40       26.33       26.24       26.14       26.04       25.93       25.82       25.72    
        25.61       25.52       25.42       25.32       25.26       25.23       25.23       25.23       25.22       25.21    
        25.20       25.19       25.18       25.17       25.16       25.15       25.14       25.13       25.12       25.11    
        25.10       25.09       25.08       25.07       25.05       25.04       25.03       25.02       25.01       25.00    
  15    26.16       26.14       26.11       26.06       25.99       25.92       25.84       25.75       25.67       25.58    
        25.49       25.41       25.31       25.26       25.23       25.23       25.23       25.22       25.21       25.20    
        25.20       25.19       25.18       25.17       25.16       25.15       25.14       25.13       25.12       25.11    
        25.10       25.08       25.07       25.06       25.05       25.04       25.03       25.02       25.01       25.00    
  16    25.92       25.91       25.88       25.84       25.79       25.73       25.67       25.60       25.53       25.46    
        25.36       25.30       25.25       25.23       25.23       25.23       25.22       25.21       25.20       25.20    
        25.19       25.18       25.17       25.16       25.15       25.14       25.13       25.12       25.11       25.10    
        25.09       25.08       25.07       25.06       25.05       25.04       25.03       25.02       25.01       25.00    
  17    25.73       25.72       25.70       25.66       25.63       25.58       25.53       25.47       25.41       25.33    
        25.28       25.25       25.23       25.23       25.23       25.22       25.21       25.20       25.20       25.19    
        25.18       25.17       25.16       25.16       25.15       25.14       25.13       25.12       25.11       25.10    
        25.09       25.08       25.07       25.06       25.05       25.04       25.03       25.02       25.01       25.00    
  18    25.57       25.56       25.55       25.52       25.49       25.45       25.41       25.34       25.30       25.27    
        25.24       25.24       25.23       25.23       25.22       25.21       25.20       25.20       25.19       25.18    
        25.17       25.17       25.16       25.15       25.14       25.13       25.12       25.11       25.10       25.09    
        25.09       25.08       25.07       25.06       25.05       25.04       25.03       25.02       25.01       25.00    
  19    25.44       25.44       25.42       25.40       25.35       25.32       25.30       25.28       25.26       25.26    
        25.25       25.24       25.23       25.22       25.21       25.20       25.20       25.19       25.18       25.18    
        25.17       25.16       25.15       25.14       25.13       25.13       25.12       25.11       25.10       25.09    
        25.08       25.07       25.06       25.05       25.05       25.04       25.03       25.02       25.01       25.00    
  20    25.33       25.33       25.32       25.30       25.29       25.27       25.28       25.27       25.26       25.25    
        25.24       25.23       25.22       25.21       25.20       25.20       25.19       25.18       25.18       25.17    
        25.16       25.15       25.14       25.14       25.13       25.12       25.11       25.10       25.09       25.09    
        25.08       25.07       25.06       25.05       25.04       25.03       25.03       25.02       25.01       25.00    
  21    25.31       25.31       25.30       25.29       25.28       25.27       25.27       25.26       25.25       25.24    
        25.23       25.22       25.21       25.20       25.20       25.19       25.18       25.17       25.17       25.16    
        25.15       25.15       25.14       25.13       25.12       25.11       25.11       25.10       25.09       25.08    
        25.07       25.07       25.06       25.05       25.04       25.03       25.02       25.02       25.01       25.00    
  22    25.29       25.29       25.28       25.27       25.27       25.26       25.25       25.24       25.23       25.23    
        25.22       25.21       25.20       25.19       25.19       25.18       25.17       25.17       25.16       25.15    
        25.15       25.14       25.13       25.12       25.12       25.11       25.10       25.09       25.09       25.08    
        25.07       25.06       25.05       25.05       25.04       25.03       25.02       25.02       25.01       25.00    
  23    25.27       25.26       25.26       25.26       25.25       25.24       25.24       25.23       25.22       25.21    
        25.21       25.20       25.19       25.18       25.18       25.17       25.16       25.16       25.15       25.14    
        25.14       25.13       25.12       25.12       25.11       25.10       25.10       25.09       25.08       25.07    
        25.07       25.06       25.05       25.04       25.04       25.03       25.02       25.01       25.01       25.00    
  24    25.25       25.24       25.24       25.24       25.23       25.23       25.22       25.21       25.21       25.20    
        25.19       25.19       25.18       25.17       25.17       25.16       25.16       25.15       25.14       25.14    
        25.13       25.12       25.12       25.11       25.10       25.10       25.09       25.08       25.08       25.07    
        25.06       25.06       25.05       25.04       25.03       25.03       25.02       25.01       25.01       25.00    
  25    25.23       25.23       25.22       25.22       25.22       25.21       25.21       25.20       25.19       25.19    
        25.18       25.18       25.17       25.16       25.16       25.15       25.15       25.14       25.13       25.13    
        25.12       25.12       25.11       25.10       25.10       25.09       25.08       25.08       25.07       25.07    
        25.06       25.05       25.05       25.04       25.03       25.03       25.02       25.01       25.01       25.00    
  26    25.21       25.21       25.21       25.20       25.20       25.20       25.19       25.19       25.18       25.18    
        25.17       25.16       25.16       25.15       25.15       25.14       25.14       25.13       25.13       25.12    
        25.11       25.11       25.10       25.10       25.09       25.09       25.08       25.07       25.07       25.06    
        25.06       25.05       25.04       25.04       25.03       25.02       25.02       25.01       25.01       25.00    
  27    25.19       25.19       25.19       25.19       25.18       25.18       25.18       25.17       25.17       25.16    
        25.16       25.15       25.15       25.14       25.14       25.13       25.13       25.12       25.12       25.11    
        25.11       25.10       25.10       25.09       25.08       25.08       25.07       25.07       25.06       25.06    
        25.05       25.05       25.04       25.03       25.03       25.02       25.02       25.01       25.01       25.00    
  28    25.17       25.17       25.17       25.17       25.17       25.16       25.16       25.16       25.15       25.15    
        25.15       25.14       25.14       25.13       25.13       25.12       25.12       25.11       25.11       25.10    
        25.10       25.09       25.09       25.08       25.08       25.07       25.07       25.06       25.06       25.05    
        25.05       25.04       25.04       25.03       25.03       25.02       25.02       25.01       25.01       25.00    
  29    25.16       25.16       25.16       25.15       25.15       25.15       25.15       25.14       25.14       25.14    
        25.13       25.13       25.13       25.12       25.12       25.11       25.11       25.10       25.10       25.09    
        25.09       25.09       25.08       25.08       25.07       25.07       25.06       25.06       25.05       25.05    
        25.04       25.04       25.03       25.03       25.02       25.02       25.01       25.01       25.00       25.00    
  30    25.14       25.14       25.14       25.14       25.14       25.14       25.13       25.13       25.13       25.12    
        25.12       25.12       25.11       25.11       25.11       25.10       25.10       25.09       25.09       25.09    
        25.08       25.08       25.07       25.07       25.07       25.06       25.06       25.05       25.05       25.04    
        25.04       25.04       25.03       25.03       25.02       25.02       25.01       25.01       25.00       25.00    
  31    25.13       25.13       25.13       25.12       25.12       25.12       25.12       25.12       25.11       25.11    
        25.11       25.11       25.10       25.10       25.10       25.09       25.09       25.09       25.08       25.08    
        25.07       25.07       25.07       25.06       25.06       25.06       25.05       25.05       25.04       25.04    
        25.04       25.03       25.03       25.02       25.02       25.02       25.01       25.01       25.00       25.00    
  32    25.11       25.11       25.11       25.11       25.11       25.11       25.11       25.10       25.10       25.10    
        25.10       25.09       25.09       25.09       25.08       25.08       25.08       25.08       25.07       25.07    
        25.07       25.06       25.06       25.06       25.05       25.05       25.05       25.04       25.04       25.04    
        25.03       25.03       25.02       25.02       25.02       25.01       25.01       25.01       25.00       25.00    
  33    25.10       25.10       25.10       25.10       25.10       25.09       25.09       25.09       25.09       25.09    
        25.08       25.08       25.08       25.08       25.07       25.07       25.07       25.07       25.06       25.06    
        25.06       25.05       25.05       25.05       25.05       25.04       25.04       25.04       25.03       25.03    
        25.03       25.02       25.02       25.02       25.02       25.01       25.01       25.01       25.00       25.00    
  34    25.08       25.08       25.08       25.08       25.08       25.08       25.08       25.08       25.08       25.07    
        25.07       25.07       25.07       25.07       25.06       25.06       25.06       25.06       25.05       25.05    
        25.05       25.05       25.04       25.04       25.04       25.04       25.03       25.03       25.03       25.03    
        25.02       25.02       25.02       25.02       25.01       25.01       25.01       25.01       25.00       25.00    
  35    25.07       25.07       25.07       25.07       25.07       25.07       25.07       25.06       25.06       25.06    
        25.06       25.06       25.06       25.05       25.05       25.05       25.05       25.05       25.05       25.04    
        25.04       25.04       25.04       25.03       25.03       25.03       25.03       25.03       25.02       25.02    
        25.02       25.02       25.02       25.01       25.01       25.01       25.01       25.00       25.00       25.00    
  36    25.06       25.06       25.05       25.05       25.05       25.05       25.05       25.05       25.05       25.05    
        25.05       25.05       25.05       25.04       25.04       25.04       25.04       25.04       25.04       25.03    
        25.03       25.03       25.03       25.03       25.03       25.02       25.02       25.02       25.02       25.02    
        25.02       25.01       25.01       25.01       25.01       25.01       25.01       25.00       25.00       25.00    
  37    25.04       25.04       25.04       25.04       25.04       25.04       25.04       25.04       25.04       25.04    
        25.04       25.03       25.03       25.03       25.03       25.03       25.03       25.03       25.03       25.03    
        25.02       25.02       25.02       25.02       25.02       25.02       25.02       25.02       25.01       25.01    
        25.01       25.01       25.01       25.01       25.01       25.01       25.00       25.00       25.00       25.00    
  38    25.03       25.03       25.03       25.03       25.03       25.03       25.03       25.03       25.03       25.02    
        25.02       25.02       25.02       25.02       25.02       25.02       25.02       25.02       25.02       25.02    
        25.02       25.02       25.01       25.01       25.01       25.01       25.01       25.01       25.01       25.01    
        25.01       25.01       25.01       25.01       25.00       25.00       25.00       25.00       25.00       25.00    
  39    25.01       25.01       25.01       25.01       25.01       25.01       25.01       25.01       25.01       25.01    
        25.01       25.01       25.01       25.01       25.01       25.01       25.01       25.01       25.01       25.01    
        25.01       25.01       25.01       25.01       25.01       25.01       25.01       25.01       25.00       25.00    
        25.00       25.00       25.00       25.00       25.00       25.00       25.00       25.00       25.00       25.00    
  40    25.00       25.00       25.00       25.00       25.00       25.00       25.00       25.00       25.00       25.00    
        25.00       25.00       25.00       25.00       25.00       25.00       25.00       25.00       25.00       25.00    
        25.00       25.00       25.00       25.00       25.00       25.00       25.00       25.00       25.00       25.00    
        25.00       25.00       25.00       25.00       25.00       25.00       25.00       25.00       25.00       25.00    
1
              HEAD IN LAYER  11 AT END OF TIME STEP   2 IN STRESS PERIOD    3
  ---------------------------------------------------------------------------

            1           2           3           4           5           6           7           8           9          10
           11          12          13          14          15          16          17          18          19          20
           21          22          23          24          25          26          27          28          29          30
           31          32          33          34          35          36          37          38          39          40
 ........................................................................................................................
   1    46.12       44.53       41.16       38.18       35.73       33.75       32.11       30.75       29.63       28.71    
        27.96       27.36       26.87       26.48       26.17       25.92       25.73       25.57       25.45       25.34    
        25.31       25.29       25.27       25.25       25.23       25.21       25.19       25.17       25.16       25.14    
        25.13       25.11       25.10       25.08       25.07       25.06       25.04       25.03       25.01       25.00    
   2    44.53       43.15       40.15       37.51       35.28       33.43       31.89       30.59       29.51       28.63    
        27.90       27.31       26.83       26.45       26.15       25.91       25.72       25.57       25.44       25.34    
        25.31       25.29       25.26       25.24       25.23       25.21       25.19       25.17       25.16       25.14    
        25.13       25.11       25.10       25.08       25.07       25.06       25.04       25.03       25.01       25.00    
   3    41.16       40.15       38.26       36.28       34.45       32.86       31.48       30.29       29.29       28.46    
        27.78       27.22       26.77       26.40       26.11       25.88       25.70       25.55       25.43       25.33    
        25.30       25.28       25.26       25.24       25.22       25.21       25.19       25.17       25.16       25.14    
        25.13       25.11       25.10       25.08       25.07       25.05       25.04       25.03       25.01       25.00    
   4    38.18       37.51       36.28       34.85       33.43       32.11       30.92       29.88       28.99       28.23    
        27.61       27.09       26.67       26.33       26.06       25.84       25.67       25.52       25.40       25.31    
        25.29       25.27       25.26       25.24       25.22       25.20       25.19       25.17       25.15       25.14    
        25.12       25.11       25.10       25.08       25.07       25.05       25.04       25.03       25.01       25.00    
   5    35.73       35.28       34.45       33.43       32.35       31.29       30.30       29.40       28.62       27.96    
        27.40       26.94       26.56       26.25       26.00       25.79       25.63       25.49       25.36       25.29    
        25.28       25.27       25.25       25.23       25.22       25.20       25.18       25.17       25.15       25.14    
        25.12       25.11       25.10       25.08       25.07       25.05       25.04       25.03       25.01       25.00    
   6    33.75       33.43       32.86       32.11       31.29       30.46       29.64       28.89       28.23       27.66    
        27.17       26.76       26.42       26.15       25.92       25.74       25.58       25.45       25.33       25.28    
        25.27       25.26       25.24       25.23       25.21       25.20       25.18       25.16       25.15       25.14    
        25.12       25.11       25.09       25.08       25.07       25.05       25.04       25.03       25.01       25.00    
   7    32.11       31.89       31.48       30.92       30.30       29.64       28.99       28.38       27.83       27.35    
        26.93       26.58       26.29       26.04       25.84       25.67       25.53       25.41       25.31       25.28    
        25.27       25.25       25.24       25.22       25.21       25.19       25.18       25.16       25.15       25.13    
        25.12       25.11       25.09       25.08       25.07       25.05       25.04       25.03       25.01       25.00    
   8    30.75       30.59       30.29       29.88       29.40       28.89       28.38       27.89       27.45       27.05    
        26.70       26.40       26.14       25.93       25.76       25.61       25.47       25.35       25.28       25.27    
        25.26       25.24       25.23       25.21       25.20       25.19       25.17       25.16       25.14       25.13    
        25.12       25.10       25.09       25.08       25.06       25.05       25.04       25.03       25.01       25.00    
   9    29.63       29.51       29.29       28.99       28.62       28.23       27.83       27.45       27.09       26.76    
        26.47       26.22       26.01       25.82       25.67       25.53       25.41       25.31       25.26       25.26    
        25.25       25.23       25.22       25.21       25.19       25.18       25.17       25.15       25.14       25.13    
        25.11       25.10       25.09       25.08       25.06       25.05       25.04       25.03       25.01       25.00    
  10    28.71       28.63       28.46       28.23       27.96       27.66       27.35       27.05       26.76       26.50    
        26.26       26.05       25.87       25.72       25.58       25.46       25.34       25.28       25.26       25.25    
        25.24       25.23       25.21       25.20       25.19       25.18       25.16       25.15       25.14       25.12    
        25.11       25.10       25.09       25.07       25.06       25.05       25.04       25.02       25.01       25.00    
  11    27.96       27.90       27.78       27.61       27.40       27.17       26.93       26.70       26.47       26.26    
        26.07       25.90       25.75       25.62       25.49       25.37       25.29       25.25       25.25       25.24    
        25.23       25.22       25.21       25.19       25.18       25.17       25.16       25.15       25.13       25.12    
        25.11       25.10       25.08       25.07       25.06       25.05       25.04       25.02       25.01       25.00    
  12    27.36       27.31       27.22       27.09       26.94       26.76       26.58       26.40       26.22       26.05    
        25.90       25.76       25.63       25.52       25.41       25.31       25.25       25.25       25.24       25.23    
        25.22       25.21       25.20       25.19       25.18       25.16       25.15       25.14       25.13       25.12    
        25.11       25.09       25.08       25.07       25.06       25.05       25.03       25.02       25.01       25.00    
  13    26.87       26.83       26.77       26.67       26.56       26.42       26.29       26.14       26.01       25.87    
        25.75       25.63       25.53       25.42       25.32       25.26       25.23       25.23       25.23       25.22    
        25.21       25.20       25.19       25.18       25.17       25.16       25.15       25.14       25.13       25.11    
        25.10       25.09       25.08       25.07       25.06       25.05       25.03       25.02       25.01       25.00    
  14    26.48       26.45       26.40       26.33       26.25       26.15       26.04       25.93       25.82       25.72    
        25.62       25.52       25.42       25.33       25.27       25.23       25.23       25.23       25.22       25.21    
        25.20       25.19       25.18       25.17       25.16       25.15       25.14       25.13       25.12       25.11    
        25.10       25.09       25.08       25.07       25.05       25.04       25.03       25.02       25.01       25.00    
  15    26.17       26.15       26.11       26.06       26.00       25.92       25.84       25.76       25.67       25.58    
        25.49       25.41       25.32       25.27       25.24       25.23       25.23       25.22       25.21       25.20    
        25.20       25.19       25.18       25.17       25.16       25.15       25.14       25.13       25.12       25.11    
        25.10       25.08       25.07       25.06       25.05       25.04       25.03       25.02       25.01       25.00    
  16    25.92       25.91       25.88       25.84       25.79       25.74       25.67       25.61       25.53       25.46    
        25.37       25.31       25.26       25.23       25.23       25.23       25.22       25.21       25.20       25.20    
        25.19       25.18       25.17       25.16       25.15       25.14       25.13       25.12       25.11       25.10    
        25.09       25.08       25.07       25.06       25.05       25.04       25.03       25.02       25.01       25.00    
  17    25.73       25.72       25.70       25.67       25.63       25.58       25.53       25.47       25.41       25.34    
        25.29       25.25       25.23       25.23       25.23       25.22       25.21       25.20       25.20       25.19    
        25.18       25.17       25.16       25.16       25.15       25.14       25.13       25.12       25.11       25.10    
        25.09       25.08       25.07       25.06       25.05       25.04       25.03       25.02       25.01       25.00    
  18    25.57       25.57       25.55       25.52       25.49       25.45       25.41       25.35       25.31       25.28    
        25.25       25.25       25.23       25.23       25.22       25.21       25.20       25.20       25.19       25.18    
        25.17       25.17       25.16       25.15       25.14       25.13       25.12       25.11       25.10       25.09    
        25.09       25.08       25.07       25.06       25.05       25.04       25.03       25.02       25.01       25.00    
  19    25.45       25.44       25.43       25.40       25.36       25.33       25.31       25.28       25.26       25.26    
        25.25       25.24       25.23       25.22       25.21       25.20       25.20       25.19       25.18       25.18    
        25.17       25.16       25.15       25.14       25.13       25.13       25.12       25.11       25.10       25.09    
        25.08       25.07       25.06       25.05       25.05       25.04       25.03       25.02       25.01       25.00    
  20    25.34       25.34       25.33       25.31       25.29       25.28       25.28       25.27       25.26       25.25    
        25.24       25.23       25.22       25.21       25.20       25.20       25.19       25.18       25.18       25.17    
        25.16       25.15       25.14       25.14       25.13       25.12       25.11       25.10       25.09       25.09    
        25.08       25.07       25.06       25.05       25.04       25.03       25.03       25.02       25.01       25.00    
  21    25.31       25.31       25.30       25.29       25.28       25.27       25.27       25.26       25.25       25.24    
        25.23       25.22       25.21       25.20       25.20       25.19       25.18       25.17       25.17       25.16    
        25.15       25.15       25.14       25.13       25.12       25.11       25.11       25.10       25.09       25.08    
        25.07       25.07       25.06       25.05       25.04       25.03       25.02       25.02       25.01       25.00    
  22    25.29       25.29       25.28       25.27       25.27       25.26       25.25       25.24       25.23       25.23    
        25.22       25.21       25.20       25.19       25.19       25.18       25.17       25.17       25.16       25.15    
        25.15       25.14       25.13       25.12       25.12       25.11       25.10       25.09       25.09       25.08    
        25.07       25.06       25.05       25.05       25.04       25.03       25.02       25.02       25.01       25.00    
  23    25.27       25.26       25.26       25.26       25.25       25.24       25.24       25.23       25.22       25.21    
        25.21       25.20       25.19       25.18       25.18       25.17       25.16       25.16       25.15       25.14    
        25.14       25.13       25.12       25.12       25.11       25.10       25.10       25.09       25.08       25.07    
        25.07       25.06       25.05       25.04       25.04       25.03       25.02       25.01       25.01       25.00    
  24    25.25       25.24       25.24       25.24       25.23       25.23       25.22       25.21       25.21       25.20    
        25.19       25.19       25.18       25.17       25.17       25.16       25.16       25.15       25.14       25.14    
        25.13       25.12       25.12       25.11       25.10       25.10       25.09       25.08       25.08       25.07    
        25.06       25.06       25.05       25.04       25.03       25.03       25.02       25.01       25.01       25.00    
  25    25.23       25.23       25.22       25.22       25.22       25.21       25.21       25.20       25.19       25.19    
        25.18       25.18       25.17       25.16       25.16       25.15       25.15       25.14       25.13       25.13    
        25.12       25.12       25.11       25.10       25.10       25.09       25.08       25.08       25.07       25.07    
        25.06       25.05       25.05       25.04       25.03       25.03       25.02       25.01       25.01       25.00    
  26    25.21       25.21       25.21       25.20       25.20       25.20       25.19       25.19       25.18       25.18    
        25.17       25.16       25.16       25.15       25.15       25.14       25.14       25.13       25.13       25.12    
        25.11       25.11       25.10       25.10       25.09       25.09       25.08       25.07       25.07       25.06    
        25.06       25.05       25.04       25.04       25.03       25.02       25.02       25.01       25.01       25.00    
  27    25.19       25.19       25.19       25.19       25.18       25.18       25.18       25.17       25.17       25.16    
        25.16       25.15       25.15       25.14       25.14       25.13       25.13       25.12       25.12       25.11    
        25.11       25.10       25.10       25.09       25.08       25.08       25.07       25.07       25.06       25.06    
        25.05       25.05       25.04       25.03       25.03       25.02       25.02       25.01       25.01       25.00    
  28    25.17       25.17       25.17       25.17       25.17       25.16       25.16       25.16       25.15       25.15    
        25.15       25.14       25.14       25.13       25.13       25.12       25.12       25.11       25.11       25.10    
        25.10       25.09       25.09       25.08       25.08       25.07       25.07       25.06       25.06       25.05    
        25.05       25.04       25.04       25.03       25.03       25.02       25.02       25.01       25.01       25.00    
  29    25.16       25.16       25.16       25.15       25.15       25.15       25.15       25.14       25.14       25.14    
        25.13       25.13       25.13       25.12       25.12       25.11       25.11       25.10       25.10       25.09    
        25.09       25.09       25.08       25.08       25.07       25.07       25.06       25.06       25.05       25.05    
        25.04       25.04       25.03       25.03       25.02       25.02       25.01       25.01       25.00       25.00    
  30    25.14       25.14       25.14       25.14       25.14       25.14       25.13       25.13       25.13       25.12    
        25.12       25.12       25.11       25.11       25.11       25.10       25.10       25.09       25.09       25.09    
        25.08       25.08       25.07       25.07       25.07       25.06       25.06       25.05       25.05       25.04    
        25.04       25.04       25.03       25.03       25.02       25.02       25.01       25.01       25.00       25.00    
  31    25.13       25.13       25.13       25.12       25.12       25.12       25.12       25.12       25.11       25.11    
        25.11       25.11       25.10       25.10       25.10       25.09       25.09       25.09       25.08       25.08    
        25.07       25.07       25.07       25.06       25.06       25.06       25.05       25.05       25.04       25.04    
        25.04       25.03       25.03       25.02       25.02       25.02       25.01       25.01       25.00       25.00    
  32    25.11       25.11       25.11       25.11       25.11       25.11       25.11       25.10       25.10       25.10    
        25.10       25.09       25.09       25.09       25.08       25.08       25.08       25.08       25.07       25.07    
        25.07       25.06       25.06       25.06       25.05       25.05       25.05       25.04       25.04       25.04    
        25.03       25.03       25.02       25.02       25.02       25.01       25.01       25.01       25.00       25.00    
  33    25.10       25.10       25.10       25.10       25.10       25.09       25.09       25.09       25.09       25.09    
        25.08       25.08       25.08       25.08       25.07       25.07       25.07       25.07       25.06       25.06    
        25.06       25.05       25.05       25.05       25.05       25.04       25.04       25.04       25.03       25.03    
        25.03       25.02       25.02       25.02       25.02       25.01       25.01       25.01       25.00       25.00    
  34    25.08       25.08       25.08       25.08       25.08       25.08       25.08       25.08       25.08       25.07    
        25.07       25.07       25.07       25.07       25.06       25.06       25.06       25.06       25.05       25.05    
        25.05       25.05       25.04       25.04       25.04       25.04       25.03       25.03       25.03       25.03    
        25.02       25.02       25.02       25.02       25.01       25.01       25.01       25.01       25.00       25.00    
  35    25.07       25.07       25.07       25.07       25.07       25.07       25.07       25.06       25.06       25.06    
        25.06       25.06       25.06       25.05       25.05       25.05       25.05       25.05       25.05       25.04    
        25.04       25.04       25.04       25.03       25.03       25.03       25.03       25.03       25.02       25.02    
        25.02       25.02       25.02       25.01       25.01       25.01       25.01       25.00       25.00       25.00    
  36    25.06       25.06       25.05       25.05       25.05       25.05       25.05       25.05       25.05       25.05    
        25.05       25.05       25.05       25.04       25.04       25.04       25.04       25.04       25.04       25.03    
        25.03       25.03       25.03       25.03       25.03       25.02       25.02       25.02       25.02       25.02    
        25.02       25.01       25.01       25.01       25.01       25.01       25.01       25.00       25.00       25.00    
  37    25.04       25.04       25.04       25.04       25.04       25.04       25.04       25.04       25.04       25.04    
        25.04       25.03       25.03       25.03       25.03       25.03       25.03       25.03       25.03       25.03    
        25.02       25.02       25.02       25.02       25.02       25.02       25.02       25.02       25.01       25.01    
        25.01       25.01       25.01       25.01       25.01       25.01       25.00       25.00       25.00       25.00    
  38    25.03       25.03       25.03       25.03       25.03       25.03       25.03       25.03       25.03       25.02    
        25.02       25.02       25.02       25.02       25.02       25.02       25.02       25.02       25.02       25.02    
        25.02       25.02       25.01       25.01       25.01       25.01       25.01       25.01       25.01       25.01    
        25.01       25.01       25.01       25.01       25.00       25.00       25.00       25.00       25.00       25.00    
  39    25.01       25.01       25.01       25.01       25.01       25.01       25.01       25.01       25.01       25.01    
        25.01       25.01       25.01       25.01       25.01       25.01       25.01       25.01       25.01       25.01    
        25.01       25.01       25.01       25.01       25.01       25.01       25.01       25.01       25.00       25.00    
        25.00       25.00       25.00       25.00       25.00       25.00       25.00       25.00       25.00       25.00    
  40    25.00       25.00       25.00       25.00       25.00       25.00       25.00       25.00       25.00       25.00    
        25.00       25.00       25.00       25.00       25.00       25.00       25.00       25.00       25.00       25.00    
        25.00       25.00       25.00       25.00       25.00       25.00       25.00       25.00       25.00       25.00    
        25.00       25.00       25.00       25.00       25.00       25.00       25.00       25.00       25.00       25.00    
1
              HEAD IN LAYER  12 AT END OF TIME STEP   2 IN STRESS PERIOD    3
  ---------------------------------------------------------------------------

            1           2           3           4           5           6           7           8           9          10
           11          12          13          14          15          16          17          18          19          20
           21          22          23          24          25          26          27          28          29          30
           31          32          33          34          35          36          37          38          39          40
 ........................................................................................................................
   1    45.82       44.26       41.08       38.16       35.73       33.75       32.11       30.76       29.64       28.72    
        27.97       27.36       26.87       26.48       26.17       25.93       25.73       25.58       25.45       25.35    
        25.32       25.29       25.27       25.25       25.23       25.21       25.19       25.17       25.16       25.14    
        25.13       25.11       25.10       25.08       25.07       25.06       25.04       25.03       25.01       25.00    
   2    44.26       42.89       40.08       37.49       35.28       33.44       31.89       30.60       29.52       28.63    
        27.91       27.32       26.84       26.46       26.15       25.91       25.72       25.57       25.44       25.34    
        25.31       25.29       25.26       25.24       25.23       25.21       25.19       25.17       25.16       25.14    
        25.13       25.11       25.10       25.08       25.07       25.06       25.04       25.03       25.01       25.00    
   3    41.08       40.08       38.23       36.28       34.46       32.86       31.48       30.30       29.30       28.47    
        27.78       27.23       26.77       26.41       26.12       25.89       25.70       25.55       25.43       25.33    
        25.30       25.28       25.26       25.24       25.22       25.21       25.19       25.17       25.16       25.14    
        25.13       25.11       25.10       25.08       25.07       25.05       25.04       25.03       25.01       25.00    
   4    38.16       37.49       36.28       34.85       33.44       32.12       30.93       29.88       28.99       28.24    
        27.61       27.10       26.68       26.34       26.06       25.85       25.67       25.53       25.41       25.32    
        25.29       25.27       25.26       25.24       25.22       25.20       25.19       25.17       25.15       25.14    
        25.12       25.11       25.10       25.08       25.07       25.05       25.04       25.03       25.01       25.00    
   5    35.73       35.28       34.46       33.44       32.35       31.30       30.30       29.41       28.63       27.97    
        27.41       26.94       26.56       26.25       26.00       25.80       25.63       25.49       25.37       25.30    
        25.28       25.27       25.25       25.23       25.22       25.20       25.18       25.17       25.15       25.14    
        25.12       25.11       25.10       25.08       25.07       25.05       25.04       25.03       25.01       25.00    
   6    33.75       33.44       32.86       32.12       31.30       30.46       29.64       28.90       28.24       27.67    
        27.18       26.77       26.43       26.15       25.92       25.74       25.58       25.45       25.34       25.28    
        25.27       25.26       25.24       25.23       25.21       25.20       25.18       25.16       25.15       25.14    
        25.12       25.11       25.09       25.08       25.07       25.05       25.04       25.03       25.01       25.00    
   7    32.11       31.89       31.48       30.93       30.30       29.64       28.99       28.39       27.84       27.36    
        26.94       26.59       26.29       26.05       25.84       25.67       25.53       25.41       25.32       25.28    
        25.27       25.25       25.24       25.22       25.21       25.19       25.18       25.16       25.15       25.13    
        25.12       25.11       25.09       25.08       25.07       25.05       25.04       25.03       25.01       25.00    
   8    30.76       30.60       30.30       29.88       29.41       28.90       28.39       27.90       27.45       27.05    
        26.70       26.40       26.15       25.94       25.76       25.61       25.48       25.36       25.29       25.27    
        25.26       25.24       25.23       25.21       25.20       25.19       25.17       25.16       25.14       25.13    
        25.12       25.10       25.09       25.08       25.06       25.05       25.04       25.03       25.01       25.00    
   9    29.64       29.52       29.30       28.99       28.63       28.24       27.84       27.45       27.09       26.77    
        26.48       26.23       26.01       25.83       25.67       25.54       25.42       25.31       25.27       25.26    
        25.25       25.23       25.22       25.21       25.19       25.18       25.17       25.15       25.14       25.13    
        25.11       25.10       25.09       25.08       25.06       25.05       25.04       25.03       25.01       25.00    
  10    28.72       28.63       28.47       28.24       27.97       27.67       27.36       27.05       26.77       26.50    
        26.27       26.06       25.88       25.72       25.58       25.46       25.35       25.28       25.26       25.25    
        25.24       25.23       25.21       25.20       25.19       25.18       25.16       25.15       25.14       25.12    
        25.11       25.10       25.09       25.07       25.06       25.05       25.04       25.02       25.01       25.00    
  11    27.97       27.91       27.78       27.61       27.41       27.18       26.94       26.70       26.48       26.27    
        26.07       25.90       25.75       25.62       25.49       25.37       25.29       25.25       25.25       25.24    
        25.23       25.22       25.21       25.19       25.18       25.17       25.16       25.15       25.13       25.12    
        25.11       25.10       25.08       25.07       25.06       25.05       25.04       25.02       25.01       25.00    
  12    27.36       27.32       27.23       27.10       26.94       26.77       26.59       26.40       26.23       26.06    
        25.90       25.76       25.64       25.52       25.41       25.31       25.26       25.25       25.24       25.23    
        25.22       25.21       25.20       25.19       25.18       25.16       25.15       25.14       25.13       25.12    
        25.11       25.09       25.08       25.07       25.06       25.05       25.03       25.02       25.01       25.00    
  13    26.87       26.84       26.77       26.68       26.56       26.43       26.29       26.15       26.01       25.88    
        25.75       25.64       25.53       25.42       25.33       25.27       25.24       25.23       25.23       25.22    
        25.21       25.20       25.19       25.18       25.17       25.16       25.15       25.14       25.13       25.11    
        25.10       25.09       25.08       25.07       25.06       25.05       25.03       25.02       25.01       25.00    
  14    26.48       26.46       26.41       26.34       26.25       26.15       26.05       25.94       25.83       25.72    
        25.62       25.52       25.42       25.33       25.27       25.24       25.23       25.23       25.22       25.21    
        25.20       25.19       25.18       25.17       25.16       25.15       25.14       25.13       25.12       25.11    
        25.10       25.09       25.08       25.07       25.05       25.04       25.03       25.02       25.01       25.00    
  15    26.17       26.15       26.12       26.06       26.00       25.92       25.84       25.76       25.67       25.58    
        25.49       25.41       25.33       25.27       25.24       25.23       25.23       25.22       25.21       25.20    
        25.20       25.19       25.18       25.17       25.16       25.15       25.14       25.13       25.12       25.11    
        25.10       25.08       25.07       25.06       25.05       25.04       25.03       25.02       25.01       25.00    
  16    25.93       25.91       25.89       25.85       25.80       25.74       25.67       25.61       25.54       25.46    
        25.37       25.31       25.27       25.24       25.23       25.23       25.22       25.21       25.20       25.20    
        25.19       25.18       25.17       25.16       25.15       25.14       25.13       25.12       25.11       25.10    
        25.09       25.08       25.07       25.06       25.05       25.04       25.03       25.02       25.01       25.00    
  17    25.73       25.72       25.70       25.67       25.63       25.58       25.53       25.48       25.42       25.35    
        25.29       25.26       25.24       25.23       25.23       25.22       25.21       25.20       25.20       25.19    
        25.18       25.17       25.16       25.16       25.15       25.14       25.13       25.12       25.11       25.10    
        25.09       25.08       25.07       25.06       25.05       25.04       25.03       25.02       25.01       25.00    
  18    25.58       25.57       25.55       25.53       25.49       25.45       25.41       25.36       25.31       25.28    
        25.25       25.25       25.23       25.23       25.22       25.21       25.20       25.20       25.19       25.18    
        25.17       25.17       25.16       25.15       25.14       25.13       25.12       25.11       25.10       25.09    
        25.09       25.08       25.07       25.06       25.05       25.04       25.03       25.02       25.01       25.00    
  19    25.45       25.44       25.43       25.41       25.37       25.34       25.32       25.29       25.27       25.26    
        25.25       25.24       25.23       25.22       25.21       25.20       25.20       25.19       25.18       25.18    
        25.17       25.16       25.15       25.14       25.13       25.13       25.12       25.11       25.10       25.09    
        25.08       25.07       25.06       25.05       25.05       25.04       25.03       25.02       25.01       25.00    
  20    25.35       25.34       25.33       25.32       25.30       25.28       25.28       25.27       25.26       25.25    
        25.24       25.23       25.22       25.21       25.20       25.20       25.19       25.18       25.18       25.17    
        25.16       25.15       25.14       25.14       25.13       25.12       25.11       25.10       25.09       25.09    
        25.08       25.07       25.06       25.05       25.04       25.03       25.03       25.02       25.01       25.00    
  21    25.32       25.31       25.30       25.29       25.28       25.27       25.27       25.26       25.25       25.24    
        25.23       25.22       25.21       25.20       25.20       25.19       25.18       25.17       25.17       25.16    
        25.15       25.15       25.14       25.13       25.12       25.11       25.11       25.10       25.09       25.08    
        25.07       25.07       25.06       25.05       25.04       25.03       25.02       25.02       25.01       25.00    
  22    25.29       25.29       25.28       25.27       25.27       25.26       25.25       25.24       25.23       25.23    
        25.22       25.21       25.20       25.19       25.19       25.18       25.17       25.17       25.16       25.15    
        25.15       25.14       25.13       25.12       25.12       25.11       25.10       25.09       25.09       25.08    
        25.07       25.06       25.05       25.05       25.04       25.03       25.02       25.02       25.01       25.00    
  23    25.27       25.26       25.26       25.26       25.25       25.24       25.24       25.23       25.22       25.21    
        25.21       25.20       25.19       25.18       25.18       25.17       25.16       25.16       25.15       25.14    
        25.14       25.13       25.12       25.12       25.11       25.10       25.10       25.09       25.08       25.07    
        25.07       25.06       25.05       25.04       25.04       25.03       25.02       25.01       25.01       25.00    
  24    25.25       25.24       25.24       25.24       25.23       25.23       25.22       25.21       25.21       25.20    
        25.19       25.19       25.18       25.17       25.17       25.16       25.16       25.15       25.14       25.14    
        25.13       25.12       25.12       25.11       25.10       25.10       25.09       25.08       25.08       25.07    
        25.06       25.06       25.05       25.04       25.03       25.03       25.02       25.01       25.01       25.00    
  25    25.23       25.23       25.22       25.22       25.22       25.21       25.21       25.20       25.19       25.19    
        25.18       25.18       25.17       25.16       25.16       25.15       25.15       25.14       25.13       25.13    
        25.12       25.12       25.11       25.10       25.10       25.09       25.08       25.08       25.07       25.07    
        25.06       25.05       25.05       25.04       25.03       25.03       25.02       25.01       25.01       25.00    
  26    25.21       25.21       25.21       25.20       25.20       25.20       25.19       25.19       25.18       25.18    
        25.17       25.16       25.16       25.15       25.15       25.14       25.14       25.13       25.13       25.12    
        25.11       25.11       25.10       25.10       25.09       25.09       25.08       25.07       25.07       25.06    
        25.06       25.05       25.04       25.04       25.03       25.02       25.02       25.01       25.01       25.00    
  27    25.19       25.19       25.19       25.19       25.18       25.18       25.18       25.17       25.17       25.16    
        25.16       25.15       25.15       25.14       25.14       25.13       25.13       25.12       25.12       25.11    
        25.11       25.10       25.10       25.09       25.08       25.08       25.07       25.07       25.06       25.06    
        25.05       25.05       25.04       25.03       25.03       25.02       25.02       25.01       25.01       25.00    
  28    25.17       25.17       25.17       25.17       25.17       25.16       25.16       25.16       25.15       25.15    
        25.15       25.14       25.14       25.13       25.13       25.12       25.12       25.11       25.11       25.10    
        25.10       25.09       25.09       25.08       25.08       25.07       25.07       25.06       25.06       25.05    
        25.05       25.04       25.04       25.03       25.03       25.02       25.02       25.01       25.01       25.00    
  29    25.16       25.16       25.16       25.15       25.15       25.15       25.15       25.14       25.14       25.14    
        25.13       25.13       25.13       25.12       25.12       25.11       25.11       25.10       25.10       25.09    
        25.09       25.09       25.08       25.08       25.07       25.07       25.06       25.06       25.05       25.05    
        25.04       25.04       25.03       25.03       25.02       25.02       25.01       25.01       25.00       25.00    
  30    25.14       25.14       25.14       25.14       25.14       25.14       25.13       25.13       25.13       25.12    
        25.12       25.12       25.11       25.11       25.11       25.10       25.10       25.09       25.09       25.09    
        25.08       25.08       25.07       25.07       25.07       25.06       25.06       25.05       25.05       25.04    
        25.04       25.04       25.03       25.03       25.02       25.02       25.01       25.01       25.00       25.00    
  31    25.13       25.13       25.13       25.12       25.12       25.12       25.12       25.12       25.11       25.11    
        25.11       25.11       25.10       25.10       25.10       25.09       25.09       25.09       25.08       25.08    
        25.07       25.07       25.07       25.06       25.06       25.06       25.05       25.05       25.04       25.04    
        25.04       25.03       25.03       25.02       25.02       25.02       25.01       25.01       25.00       25.00    
  32    25.11       25.11       25.11       25.11       25.11       25.11       25.11       25.10       25.10       25.10    
        25.10       25.09       25.09       25.09       25.08       25.08       25.08       25.08       25.07       25.07    
        25.07       25.06       25.06       25.06       25.05       25.05       25.05       25.04       25.04       25.04    
        25.03       25.03       25.02       25.02       25.02       25.01       25.01       25.01       25.00       25.00    
  33    25.10       25.10       25.10       25.10       25.10       25.09       25.09       25.09       25.09       25.09    
        25.08       25.08       25.08       25.08       25.07       25.07       25.07       25.07       25.06       25.06    
        25.06       25.05       25.05       25.05       25.05       25.04       25.04       25.04       25.03       25.03    
        25.03       25.02       25.02       25.02       25.02       25.01       25.01       25.01       25.00       25.00    
  34    25.08       25.08       25.08       25.08       25.08       25.08       25.08       25.08       25.08       25.07    
        25.07       25.07       25.07       25.07       25.06       25.06       25.06       25.06       25.05       25.05    
        25.05       25.05       25.04       25.04       25.04       25.04       25.03       25.03       25.03       25.03    
        25.02       25.02       25.02       25.02       25.01       25.01       25.01       25.01       25.00       25.00    
  35    25.07       25.07       25.07       25.07       25.07       25.07       25.07       25.06       25.06       25.06    
        25.06       25.06       25.06       25.05       25.05       25.05       25.05       25.05       25.05       25.04    
        25.04       25.04       25.04       25.03       25.03       25.03       25.03       25.03       25.02       25.02    
        25.02       25.02       25.02       25.01       25.01       25.01       25.01       25.00       25.00       25.00    
  36    25.06       25.06       25.05       25.05       25.05       25.05       25.05       25.05       25.05       25.05    
        25.05       25.05       25.05       25.04       25.04       25.04       25.04       25.04       25.04       25.03    
        25.03       25.03       25.03       25.03       25.03       25.02       25.02       25.02       25.02       25.02    
        25.02       25.01       25.01       25.01       25.01       25.01       25.01       25.00       25.00       25.00    
  37    25.04       25.04       25.04       25.04       25.04       25.04       25.04       25.04       25.04       25.04    
        25.04       25.03       25.03       25.03       25.03       25.03       25.03       25.03       25.03       25.03    
        25.02       25.02       25.02       25.02       25.02       25.02       25.02       25.02       25.01       25.01    
        25.01       25.01       25.01       25.01       25.01       25.01       25.00       25.00       25.00       25.00    
  38    25.03       25.03       25.03       25.03       25.03       25.03       25.03       25.03       25.03       25.02    
        25.02       25.02       25.02       25.02       25.02       25.02       25.02       25.02       25.02       25.02    
        25.02       25.02       25.01       25.01       25.01       25.01       25.01       25.01       25.01       25.01    
        25.01       25.01       25.01       25.01       25.00       25.00       25.00       25.00       25.00       25.00    
  39    25.01       25.01       25.01       25.01       25.01       25.01       25.01       25.01       25.01       25.01    
        25.01       25.01       25.01       25.01       25.01       25.01       25.01       25.01       25.01       25.01    
        25.01       25.01       25.01       25.01       25.01       25.01       25.01       25.01       25.00       25.00    
        25.00       25.00       25.00       25.00       25.00       25.00       25.00       25.00       25.00       25.00    
  40    25.00       25.00       25.00       25.00       25.00       25.00       25.00       25.00       25.00       25.00    
        25.00       25.00       25.00       25.00       25.00       25.00       25.00       25.00       25.00       25.00    
        25.00       25.00       25.00       25.00       25.00       25.00       25.00       25.00       25.00       25.00    
        25.00       25.00       25.00       25.00       25.00       25.00       25.00       25.00       25.00       25.00    
1
              HEAD IN LAYER  13 AT END OF TIME STEP   2 IN STRESS PERIOD    3
  ---------------------------------------------------------------------------

            1           2           3           4           5           6           7           8           9          10
           11          12          13          14          15          16          17          18          19          20
           21          22          23          24          25          26          27          28          29          30
           31          32          33          34          35          36          37          38          39          40
 ........................................................................................................................
   1    45.63       44.08       41.03       38.14       35.73       33.75       32.12       30.76       29.64       28.72    
        27.98       27.37       26.88       26.49       26.18       25.93       25.73       25.58       25.45       25.35    
        25.32       25.29       25.27       25.25       25.23       25.21       25.19       25.17       25.16       25.14    
        25.13       25.11       25.10       25.08       25.07       25.06       25.04       25.03       25.01       25.00    
   2    44.08       42.72       40.04       37.48       35.28       33.44       31.90       30.60       29.53       28.64    
        27.91       27.32       26.84       26.46       26.16       25.92       25.72       25.57       25.44       25.35    
        25.31       25.29       25.26       25.24       25.23       25.21       25.19       25.17       25.16       25.14    
        25.13       25.11       25.10       25.08       25.07       25.06       25.04       25.03       25.01       25.00    
   3    41.03       40.04       38.22       36.27       34.46       32.86       31.49       30.30       29.30       28.47    
        27.79       27.23       26.78       26.41       26.12       25.89       25.70       25.55       25.43       25.34    
        25.30       25.28       25.26       25.24       25.22       25.21       25.19       25.17       25.16       25.14    
        25.13       25.11       25.10       25.08       25.07       25.05       25.04       25.03       25.01       25.00    
   4    38.14       37.48       36.27       34.85       33.44       32.12       30.93       29.89       29.00       28.25    
        27.62       27.10       26.68       26.34       26.07       25.85       25.67       25.53       25.41       25.32    
        25.29       25.27       25.26       25.24       25.22       25.20       25.19       25.17       25.15       25.14    
        25.12       25.11       25.10       25.08       25.07       25.05       25.04       25.03       25.01       25.00    
   5    35.73       35.28       34.46       33.44       32.36       31.30       30.31       29.41       28.64       27.97    
        27.41       26.95       26.56       26.25       26.00       25.80       25.63       25.49       25.37       25.30    
        25.28       25.27       25.25       25.23       25.22       25.20       25.18       25.17       25.15       25.14    
        25.12       25.11       25.10       25.08       25.07       25.05       25.04       25.03       25.01       25.00    
   6    33.75       33.44       32.86       32.12       31.30       30.46       29.65       28.90       28.24       27.67    
        27.18       26.77       26.43       26.15       25.93       25.74       25.59       25.45       25.34       25.29    
        25.27       25.26       25.24       25.23       25.21       25.20       25.18       25.16       25.15       25.14    
        25.12       25.11       25.09       25.08       25.07       25.05       25.04       25.03       25.01       25.00    
   7    32.12       31.90       31.49       30.93       30.31       29.65       29.00       28.39       27.84       27.36    
        26.94       26.59       26.29       26.05       25.84       25.68       25.53       25.41       25.32       25.28    
        25.27       25.25       25.24       25.22       25.21       25.19       25.18       25.16       25.15       25.13    
        25.12       25.11       25.09       25.08       25.07       25.05       25.04       25.03       25.01       25.00    
   8    30.76       30.60       30.30       29.89       29.41       28.90       28.39       27.91       27.46       27.06    
        26.71       26.41       26.15       25.94       25.76       25.61       25.48       25.36       25.29       25.27    
        25.26       25.24       25.23       25.21       25.20       25.19       25.17       25.16       25.14       25.13    
        25.12       25.10       25.09       25.08       25.06       25.05       25.04       25.03       25.01       25.00    
   9    29.64       29.53       29.30       29.00       28.64       28.24       27.84       27.46       27.10       26.77    
        26.48       26.23       26.01       25.83       25.67       25.54       25.42       25.32       25.27       25.26    
        25.25       25.23       25.22       25.21       25.19       25.18       25.17       25.15       25.14       25.13    
        25.11       25.10       25.09       25.08       25.06       25.05       25.04       25.03       25.01       25.00    
  10    28.72       28.64       28.47       28.25       27.97       27.67       27.36       27.06       26.77       26.51    
        26.27       26.06       25.88       25.72       25.58       25.46       25.35       25.28       25.26       25.25    
        25.24       25.23       25.21       25.20       25.19       25.18       25.16       25.15       25.14       25.12    
        25.11       25.10       25.09       25.07       25.06       25.05       25.04       25.02       25.01       25.00    
  11    27.98       27.91       27.79       27.62       27.41       27.18       26.94       26.71       26.48       26.27    
        26.08       25.91       25.75       25.62       25.49       25.38       25.30       25.26       25.25       25.24    
        25.23       25.22       25.21       25.19       25.18       25.17       25.16       25.15       25.13       25.12    
        25.11       25.10       25.08       25.07       25.06       25.05       25.04       25.02       25.01       25.00    
  12    27.37       27.32       27.23       27.10       26.95       26.77       26.59       26.41       26.23       26.06    
        25.91       25.76       25.64       25.52       25.41       25.32       25.26       25.25       25.24       25.23    
        25.22       25.21       25.20       25.19       25.18       25.16       25.15       25.14       25.13       25.12    
        25.11       25.09       25.08       25.07       25.06       25.05       25.03       25.02       25.01       25.00    
  13    26.88       26.84       26.78       26.68       26.56       26.43       26.29       26.15       26.01       25.88    
        25.75       25.64       25.53       25.43       25.33       25.27       25.24       25.23       25.23       25.22    
        25.21       25.20       25.19       25.18       25.17       25.16       25.15       25.14       25.13       25.11    
        25.10       25.09       25.08       25.07       25.06       25.05       25.03       25.02       25.01       25.00    
  14    26.49       26.46       26.41       26.34       26.25       26.15       26.05       25.94       25.83       25.72    
        25.62       25.52       25.43       25.34       25.27       25.24       25.23       25.23       25.22       25.21    
        25.20       25.19       25.18       25.17       25.16       25.15       25.14       25.13       25.12       25.11    
        25.10       25.09       25.08       25.07       25.05       25.04       25.03       25.02       25.01       25.00    
  15    26.18       26.16       26.12       26.07       26.00       25.93       25.84       25.76       25.67       25.58    
        25.49       25.41       25.33       25.27       25.24       25.23       25.23       25.22       25.21       25.20    
        25.20       25.19       25.18       25.17       25.16       25.15       25.14       25.13       25.12       25.11    
        25.10       25.08       25.07       25.06       25.05       25.04       25.03       25.02       25.01       25.00    
  16    25.93       25.92       25.89       25.85       25.80       25.74       25.68       25.61       25.54       25.46    
        25.38       25.32       25.27       25.24       25.23       25.23       25.22       25.21       25.20       25.20    
        25.19       25.18       25.17       25.16       25.15       25.14       25.13       25.12       25.11       25.10    
        25.09       25.08       25.07       25.06       25.05       25.04       25.03       25.02       25.01       25.00    
  17    25.73       25.72       25.70       25.67       25.63       25.59       25.53       25.48       25.42       25.35    
        25.30       25.26       25.24       25.23       25.23       25.22       25.21       25.20       25.20       25.19    
        25.18       25.17       25.16       25.16       25.15       25.14       25.13       25.12       25.11       25.10    
        25.09       25.08       25.07       25.06       25.05       25.04       25.03       25.02       25.01       25.00    
  18    25.58       25.57       25.55       25.53       25.49       25.45       25.41       25.36       25.32       25.28    
        25.26       25.25       25.23       25.23       25.22       25.21       25.20       25.20       25.19       25.18    
        25.17       25.17       25.16       25.15       25.14       25.13       25.12       25.11       25.10       25.09    
        25.09       25.08       25.07       25.06       25.05       25.04       25.03       25.02       25.01       25.00    
  19    25.45       25.44       25.43       25.41       25.37       25.34       25.32       25.29       25.27       25.26    
        25.25       25.24       25.23       25.22       25.21       25.20       25.20       25.19       25.18       25.18    
        25.17       25.16       25.15       25.14       25.13       25.13       25.12       25.11       25.10       25.09    
        25.08       25.07       25.06       25.05       25.05       25.04       25.03       25.02       25.01       25.00    
  20    25.35       25.35       25.34       25.32       25.30       25.29       25.28       25.27       25.26       25.25    
        25.24       25.23       25.22       25.21       25.20       25.20       25.19       25.18       25.18       25.17    
        25.16       25.15       25.14       25.14       25.13       25.12       25.11       25.10       25.09       25.09    
        25.08       25.07       25.06       25.05       25.04       25.03       25.03       25.02       25.01       25.00    
  21    25.32       25.31       25.30       25.29       25.28       25.27       25.27       25.26       25.25       25.24    
        25.23       25.22       25.21       25.20       25.20       25.19       25.18       25.17       25.17       25.16    
        25.15       25.15       25.14       25.13       25.12       25.11       25.11       25.10       25.09       25.08    
        25.07       25.07       25.06       25.05       25.04       25.03       25.02       25.02       25.01       25.00    
  22    25.29       25.29       25.28       25.27       25.27       25.26       25.25       25.24       25.23       25.23    
        25.22       25.21       25.20       25.19       25.19       25.18       25.17       25.17       25.16       25.15    
        25.15       25.14       25.13       25.12       25.12       25.11       25.10       25.09       25.09       25.08    
        25.07       25.06       25.05       25.05       25.04       25.03       25.02       25.02       25.01       25.00    
  23    25.27       25.26       25.26       25.26       25.25       25.24       25.24       25.23       25.22       25.21    
        25.21       25.20       25.19       25.18       25.18       25.17       25.16       25.16       25.15       25.14    
        25.14       25.13       25.12       25.12       25.11       25.10       25.10       25.09       25.08       25.07    
        25.07       25.06       25.05       25.04       25.04       25.03       25.02       25.01       25.01       25.00    
  24    25.25       25.24       25.24       25.24       25.23       25.23       25.22       25.21       25.21       25.20    
        25.19       25.19       25.18       25.17       25.17       25.16       25.16       25.15       25.14       25.14    
        25.13       25.12       25.12       25.11       25.10       25.10       25.09       25.08       25.08       25.07    
        25.06       25.06       25.05       25.04       25.03       25.03       25.02       25.01       25.01       25.00    
  25    25.23       25.23       25.22       25.22       25.22       25.21       25.21       25.20       25.19       25.19    
        25.18       25.18       25.17       25.16       25.16       25.15       25.15       25.14       25.13       25.13    
        25.12       25.12       25.11       25.10       25.10       25.09       25.08       25.08       25.07       25.07    
        25.06       25.05       25.05       25.04       25.03       25.03       25.02       25.01       25.01       25.00    
  26    25.21       25.21       25.21       25.20       25.20       25.20       25.19       25.19       25.18       25.18    
        25.17       25.16       25.16       25.15       25.15       25.14       25.14       25.13       25.13       25.12    
        25.11       25.11       25.10       25.10       25.09       25.09       25.08       25.07       25.07       25.06    
        25.06       25.05       25.04       25.04       25.03       25.02       25.02       25.01       25.01       25.00    
  27    25.19       25.19       25.19       25.19       25.18       25.18       25.18       25.17       25.17       25.16    
        25.16       25.15       25.15       25.14       25.14       25.13       25.13       25.12       25.12       25.11    
        25.11       25.10       25.10       25.09       25.08       25.08       25.07       25.07       25.06       25.06    
        25.05       25.05       25.04       25.03       25.03       25.02       25.02       25.01       25.01       25.00    
  28    25.17       25.17       25.17       25.17       25.17       25.16       25.16       25.16       25.15       25.15    
        25.15       25.14       25.14       25.13       25.13       25.12       25.12       25.11       25.11       25.10    
        25.10       25.09       25.09       25.08       25.08       25.07       25.07       25.06       25.06       25.05    
        25.05       25.04       25.04       25.03       25.03       25.02       25.02       25.01       25.01       25.00    
  29    25.16       25.16       25.16       25.15       25.15       25.15       25.15       25.14       25.14       25.14    
        25.13       25.13       25.13       25.12       25.12       25.11       25.11       25.10       25.10       25.09    
        25.09       25.09       25.08       25.08       25.07       25.07       25.06       25.06       25.05       25.05    
        25.04       25.04       25.03       25.03       25.02       25.02       25.01       25.01       25.00       25.00    
  30    25.14       25.14       25.14       25.14       25.14       25.14       25.13       25.13       25.13       25.12    
        25.12       25.12       25.11       25.11       25.11       25.10       25.10       25.09       25.09       25.09    
        25.08       25.08       25.07       25.07       25.07       25.06       25.06       25.05       25.05       25.04    
        25.04       25.04       25.03       25.03       25.02       25.02       25.01       25.01       25.00       25.00    
  31    25.13       25.13       25.13       25.12       25.12       25.12       25.12       25.12       25.11       25.11    
        25.11       25.11       25.10       25.10       25.10       25.09       25.09       25.09       25.08       25.08    
        25.07       25.07       25.07       25.06       25.06       25.06       25.05       25.05       25.04       25.04    
        25.04       25.03       25.03       25.02       25.02       25.02       25.01       25.01       25.00       25.00    
  32    25.11       25.11       25.11       25.11       25.11       25.11       25.11       25.10       25.10       25.10    
        25.10       25.09       25.09       25.09       25.08       25.08       25.08       25.08       25.07       25.07    
        25.07       25.06       25.06       25.06       25.05       25.05       25.05       25.04       25.04       25.04    
        25.03       25.03       25.02       25.02       25.02       25.01       25.01       25.01       25.00       25.00    
  33    25.10       25.10       25.10       25.10       25.10       25.09       25.09       25.09       25.09       25.09    
        25.08       25.08       25.08       25.08       25.07       25.07       25.07       25.07       25.06       25.06    
        25.06       25.05       25.05       25.05       25.05       25.04       25.04       25.04       25.03       25.03    
        25.03       25.02       25.02       25.02       25.02       25.01       25.01       25.01       25.00       25.00    
  34    25.08       25.08       25.08       25.08       25.08       25.08       25.08       25.08       25.08       25.07    
        25.07       25.07       25.07       25.07       25.06       25.06       25.06       25.06       25.05       25.05    
        25.05       25.05       25.04       25.04       25.04       25.04       25.03       25.03       25.03       25.03    
        25.02       25.02       25.02       25.02       25.01       25.01       25.01       25.01       25.00       25.00    
  35    25.07       25.07       25.07       25.07       25.07       25.07       25.07       25.06       25.06       25.06    
        25.06       25.06       25.06       25.05       25.05       25.05       25.05       25.05       25.05       25.04    
        25.04       25.04       25.04       25.03       25.03       25.03       25.03       25.03       25.02       25.02    
        25.02       25.02       25.02       25.01       25.01       25.01       25.01       25.00       25.00       25.00    
  36    25.06       25.06       25.05       25.05       25.05       25.05       25.05       25.05       25.05       25.05    
        25.05       25.05       25.05       25.04       25.04       25.04       25.04       25.04       25.04       25.03    
        25.03       25.03       25.03       25.03       25.03       25.02       25.02       25.02       25.02       25.02    
        25.02       25.01       25.01       25.01       25.01       25.01       25.01       25.00       25.00       25.00    
  37    25.04       25.04       25.04       25.04       25.04       25.04       25.04       25.04       25.04       25.04    
        25.04       25.03       25.03       25.03       25.03       25.03       25.03       25.03       25.03       25.03    
        25.02       25.02       25.02       25.02       25.02       25.02       25.02       25.02       25.01       25.01    
        25.01       25.01       25.01       25.01       25.01       25.01       25.00       25.00       25.00       25.00    
  38    25.03       25.03       25.03       25.03       25.03       25.03       25.03       25.03       25.03       25.02    
        25.02       25.02       25.02       25.02       25.02       25.02       25.02       25.02       25.02       25.02    
        25.02       25.02       25.01       25.01       25.01       25.01       25.01       25.01       25.01       25.01    
        25.01       25.01       25.01       25.01       25.00       25.00       25.00       25.00       25.00       25.00    
  39    25.01       25.01       25.01       25.01       25.01       25.01       25.01       25.01       25.01       25.01    
        25.01       25.01       25.01       25.01       25.01       25.01       25.01       25.01       25.01       25.01    
        25.01       25.01       25.01       25.01       25.01       25.01       25.01       25.01       25.00       25.00    
        25.00       25.00       25.00       25.00       25.00       25.00       25.00       25.00       25.00       25.00    
  40    25.00       25.00       25.00       25.00       25.00       25.00       25.00       25.00       25.00       25.00    
        25.00       25.00       25.00       25.00       25.00       25.00       25.00       25.00       25.00       25.00    
        25.00       25.00       25.00       25.00       25.00       25.00       25.00       25.00       25.00       25.00    
        25.00       25.00       25.00       25.00       25.00       25.00       25.00       25.00       25.00       25.00    
1
              HEAD IN LAYER  14 AT END OF TIME STEP   2 IN STRESS PERIOD    3
  ---------------------------------------------------------------------------

            1           2           3           4           5           6           7           8           9          10
           11          12          13          14          15          16          17          18          19          20
           21          22          23          24          25          26          27          28          29          30
           31          32          33          34          35          36          37          38          39          40
 ........................................................................................................................
   1    45.53       43.99       41.00       38.14       35.73       33.75       32.12       30.76       29.64       28.73    
        27.98       27.37       26.88       26.49       26.18       25.93       25.73       25.58       25.45       25.35    
        25.32       25.29       25.27       25.25       25.23       25.21       25.19       25.17       25.16       25.14    
        25.13       25.11       25.10       25.08       25.07       25.06       25.04       25.03       25.01       25.00    
   2    43.99       42.64       40.01       37.47       35.28       33.44       31.90       30.61       29.53       28.64    
        27.91       27.32       26.85       26.46       26.16       25.92       25.72       25.57       25.44       25.35    
        25.31       25.29       25.26       25.24       25.23       25.21       25.19       25.17       25.16       25.14    
        25.13       25.11       25.10       25.08       25.07       25.06       25.04       25.03       25.01       25.00    
   3    41.00       40.01       38.21       36.27       34.46       32.87       31.49       30.31       29.31       28.48    
        27.79       27.23       26.78       26.41       26.12       25.89       25.70       25.55       25.43       25.34    
        25.31       25.28       25.26       25.24       25.22       25.21       25.19       25.17       25.16       25.14    
        25.13       25.11       25.10       25.08       25.07       25.05       25.04       25.03       25.01       25.00    
   4    38.14       37.47       36.27       34.85       33.44       32.12       30.93       29.89       29.00       28.25    
        27.62       27.10       26.68       26.34       26.07       25.85       25.67       25.53       25.41       25.32    
        25.29       25.27       25.26       25.24       25.22       25.20       25.19       25.17       25.15       25.14    
        25.12       25.11       25.10       25.08       25.07       25.05       25.04       25.03       25.01       25.00    
   5    35.73       35.28       34.46       33.44       32.36       31.30       30.31       29.42       28.64       27.97    
        27.41       26.95       26.57       26.25       26.00       25.80       25.63       25.49       25.37       25.30    
        25.28       25.27       25.25       25.23       25.22       25.20       25.18       25.17       25.15       25.14    
        25.12       25.11       25.10       25.08       25.07       25.05       25.04       25.03       25.01       25.00    
   6    33.75       33.44       32.87       32.12       31.30       30.46       29.65       28.91       28.25       27.67    
        27.18       26.77       26.43       26.16       25.93       25.74       25.59       25.45       25.34       25.29    
        25.27       25.26       25.24       25.23       25.21       25.20       25.18       25.16       25.15       25.14    
        25.12       25.11       25.09       25.08       25.07       25.05       25.04       25.03       25.01       25.00    
   7    32.12       31.90       31.49       30.93       30.31       29.65       29.00       28.40       27.85       27.36    
        26.95       26.59       26.29       26.05       25.85       25.68       25.53       25.41       25.32       25.28    
        25.27       25.25       25.24       25.22       25.21       25.19       25.18       25.16       25.15       25.13    
        25.12       25.11       25.09       25.08       25.07       25.05       25.04       25.03       25.01       25.00    
   8    30.76       30.61       30.31       29.89       29.42       28.91       28.40       27.91       27.46       27.06    
        26.71       26.41       26.15       25.94       25.76       25.61       25.48       25.36       25.29       25.27    
        25.26       25.24       25.23       25.21       25.20       25.19       25.17       25.16       25.14       25.13    
        25.12       25.10       25.09       25.08       25.06       25.05       25.04       25.03       25.01       25.00    
   9    29.64       29.53       29.31       29.00       28.64       28.25       27.85       27.46       27.10       26.77    
        26.48       26.23       26.01       25.83       25.67       25.54       25.42       25.32       25.27       25.26    
        25.25       25.23       25.22       25.21       25.19       25.18       25.17       25.15       25.14       25.13    
        25.11       25.10       25.09       25.08       25.06       25.05       25.04       25.03       25.01       25.00    
  10    28.73       28.64       28.48       28.25       27.97       27.67       27.36       27.06       26.77       26.51    
        26.27       26.06       25.88       25.72       25.58       25.46       25.35       25.29       25.26       25.25    
        25.24       25.23       25.21       25.20       25.19       25.18       25.16       25.15       25.14       25.12    
        25.11       25.10       25.09       25.07       25.06       25.05       25.04       25.02       25.01       25.00    
  11    27.98       27.91       27.79       27.62       27.41       27.18       26.95       26.71       26.48       26.27    
        26.08       25.91       25.75       25.62       25.50       25.38       25.30       25.26       25.25       25.24    
        25.23       25.22       25.21       25.19       25.18       25.17       25.16       25.15       25.13       25.12    
        25.11       25.10       25.08       25.07       25.06       25.05       25.04       25.02       25.01       25.00    
  12    27.37       27.32       27.23       27.10       26.95       26.77       26.59       26.41       26.23       26.06    
        25.91       25.77       25.64       25.52       25.41       25.32       25.26       25.25       25.24       25.23    
        25.22       25.21       25.20       25.19       25.18       25.16       25.15       25.14       25.13       25.12    
        25.11       25.09       25.08       25.07       25.06       25.05       25.03       25.02       25.01       25.00    
  13    26.88       26.85       26.78       26.68       26.57       26.43       26.29       26.15       26.01       25.88    
        25.75       25.64       25.53       25.43       25.33       25.27       25.24       25.23       25.23       25.22    
        25.21       25.20       25.19       25.18       25.17       25.16       25.15       25.14       25.13       25.11    
        25.10       25.09       25.08       25.07       25.06       25.05       25.03       25.02       25.01       25.00    
  14    26.49       26.46       26.41       26.34       26.25       26.16       26.05       25.94       25.83       25.72    
        25.62       25.52       25.43       25.34       25.28       25.24       25.23       25.23       25.22       25.21    
        25.20       25.19       25.18       25.17       25.16       25.15       25.14       25.13       25.12       25.11    
        25.10       25.09       25.08       25.07       25.05       25.04       25.03       25.02       25.01       25.00    
  15    26.18       26.16       26.12       26.07       26.00       25.93       25.85       25.76       25.67       25.58    
        25.50       25.41       25.33       25.28       25.24       25.23       25.23       25.22       25.21       25.20    
        25.20       25.19       25.18       25.17       25.16       25.15       25.14       25.13       25.12       25.11    
        25.10       25.08       25.07       25.06       25.05       25.04       25.03       25.02       25.01       25.00    
  16    25.93       25.92       25.89       25.85       25.80       25.74       25.68       25.61       25.54       25.46    
        25.38       25.32       25.27       25.24       25.23       25.23       25.22       25.21       25.20       25.20    
        25.19       25.18       25.17       25.16       25.15       25.14       25.13       25.12       25.11       25.10    
        25.09       25.08       25.07       25.06       25.05       25.04       25.03       25.02       25.01       25.00    
  17    25.73       25.72       25.70       25.67       25.63       25.59       25.53       25.48       25.42       25.35    
        25.30       25.26       25.24       25.23       25.23       25.22       25.21       25.20       25.20       25.19    
        25.18       25.17       25.16       25.16       25.15       25.14       25.13       25.12       25.11       25.10    
        25.09       25.08       25.07       25.06       25.05       25.04       25.03       25.02       25.01       25.00    
  18    25.58       25.57       25.55       25.53       25.49       25.45       25.41       25.36       25.32       25.29    
        25.26       25.25       25.23       25.23       25.22       25.21       25.20       25.20       25.19       25.18    
        25.17       25.17       25.16       25.15       25.14       25.13       25.12       25.11       25.10       25.09    
        25.09       25.08       25.07       25.06       25.05       25.04       25.03       25.02       25.01       25.00    
  19    25.45       25.44       25.43       25.41       25.37       25.34       25.32       25.29       25.27       25.26    
        25.25       25.24       25.23       25.22       25.21       25.20       25.20       25.19       25.18       25.18    
        25.17       25.16       25.15       25.14       25.13       25.13       25.12       25.11       25.10       25.09    
        25.08       25.07       25.06       25.05       25.05       25.04       25.03       25.02       25.01       25.00    
  20    25.35       25.35       25.34       25.32       25.30       25.29       25.28       25.27       25.26       25.25    
        25.24       25.23       25.22       25.21       25.20       25.20       25.19       25.18       25.18       25.17    
        25.16       25.15       25.14       25.14       25.13       25.12       25.11       25.10       25.09       25.09    
        25.08       25.07       25.06       25.05       25.04       25.03       25.03       25.02       25.01       25.00    
  21    25.32       25.31       25.31       25.29       25.28       25.27       25.27       25.26       25.25       25.24    
        25.23       25.22       25.21       25.20       25.20       25.19       25.18       25.17       25.17       25.16    
        25.15       25.15       25.14       25.13       25.12       25.11       25.11       25.10       25.09       25.08    
        25.07       25.07       25.06       25.05       25.04       25.03       25.02       25.02       25.01       25.00    
  22    25.29       25.29       25.28       25.27       25.27       25.26       25.25       25.24       25.23       25.23    
        25.22       25.21       25.20       25.19       25.19       25.18       25.17       25.17       25.16       25.15    
        25.15       25.14       25.13       25.12       25.12       25.11       25.10       25.09       25.09       25.08    
        25.07       25.06       25.05       25.05       25.04       25.03       25.02       25.02       25.01       25.00    
  23    25.27       25.26       25.26       25.26       25.25       25.24       25.24       25.23       25.22       25.21    
        25.21       25.20       25.19       25.18       25.18       25.17       25.16       25.16       25.15       25.14    
        25.14       25.13       25.12       25.12       25.11       25.10       25.10       25.09       25.08       25.07    
        25.07       25.06       25.05       25.04       25.04       25.03       25.02       25.01       25.01       25.00    
  24    25.25       25.24       25.24       25.24       25.23       25.23       25.22       25.21       25.21       25.20    
        25.19       25.19       25.18       25.17       25.17       25.16       25.16       25.15       25.14       25.14    
        25.13       25.12       25.12       25.11       25.10       25.10       25.09       25.08       25.08       25.07    
        25.06       25.06       25.05       25.04       25.03       25.03       25.02       25.01       25.01       25.00    
  25    25.23       25.23       25.22       25.22       25.22       25.21       25.21       25.20       25.19       25.19    
        25.18       25.18       25.17       25.16       25.16       25.15       25.15       25.14       25.13       25.13    
        25.12       25.12       25.11       25.10       25.10       25.09       25.08       25.08       25.07       25.07    
        25.06       25.05       25.05       25.04       25.03       25.03       25.02       25.01       25.01       25.00    
  26    25.21       25.21       25.21       25.20       25.20       25.20       25.19       25.19       25.18       25.18    
        25.17       25.16       25.16       25.15       25.15       25.14       25.14       25.13       25.13       25.12    
        25.11       25.11       25.10       25.10       25.09       25.09       25.08       25.07       25.07       25.06    
        25.06       25.05       25.04       25.04       25.03       25.02       25.02       25.01       25.01       25.00    
  27    25.19       25.19       25.19       25.19       25.18       25.18       25.18       25.17       25.17       25.16    
        25.16       25.15       25.15       25.14       25.14       25.13       25.13       25.12       25.12       25.11    
        25.11       25.10       25.10       25.09       25.08       25.08       25.07       25.07       25.06       25.06    
        25.05       25.05       25.04       25.03       25.03       25.02       25.02       25.01       25.01       25.00    
  28    25.17       25.17       25.17       25.17       25.17       25.16       25.16       25.16       25.15       25.15    
        25.15       25.14       25.14       25.13       25.13       25.12       25.12       25.11       25.11       25.10    
        25.10       25.09       25.09       25.08       25.08       25.07       25.07       25.06       25.06       25.05    
        25.05       25.04       25.04       25.03       25.03       25.02       25.02       25.01       25.01       25.00    
  29    25.16       25.16       25.16       25.15       25.15       25.15       25.15       25.14       25.14       25.14    
        25.13       25.13       25.13       25.12       25.12       25.11       25.11       25.10       25.10       25.09    
        25.09       25.09       25.08       25.08       25.07       25.07       25.06       25.06       25.05       25.05    
        25.04       25.04       25.03       25.03       25.02       25.02       25.01       25.01       25.00       25.00    
  30    25.14       25.14       25.14       25.14       25.14       25.14       25.13       25.13       25.13       25.12    
        25.12       25.12       25.11       25.11       25.11       25.10       25.10       25.09       25.09       25.09    
        25.08       25.08       25.07       25.07       25.07       25.06       25.06       25.05       25.05       25.04    
        25.04       25.04       25.03       25.03       25.02       25.02       25.01       25.01       25.00       25.00    
  31    25.13       25.13       25.13       25.12       25.12       25.12       25.12       25.12       25.11       25.11    
        25.11       25.11       25.10       25.10       25.10       25.09       25.09       25.09       25.08       25.08    
        25.07       25.07       25.07       25.06       25.06       25.06       25.05       25.05       25.04       25.04    
        25.04       25.03       25.03       25.02       25.02       25.02       25.01       25.01       25.00       25.00    
  32    25.11       25.11       25.11       25.11       25.11       25.11       25.11       25.10       25.10       25.10    
        25.10       25.09       25.09       25.09       25.08       25.08       25.08       25.08       25.07       25.07    
        25.07       25.06       25.06       25.06       25.05       25.05       25.05       25.04       25.04       25.04    
        25.03       25.03       25.02       25.02       25.02       25.01       25.01       25.01       25.00       25.00    
  33    25.10       25.10       25.10       25.10       25.10       25.09       25.09       25.09       25.09       25.09    
        25.08       25.08       25.08       25.08       25.07       25.07       25.07       25.07       25.06       25.06    
        25.06       25.05       25.05       25.05       25.05       25.04       25.04       25.04       25.03       25.03    
        25.03       25.02       25.02       25.02       25.02       25.01       25.01       25.01       25.00       25.00    
  34    25.08       25.08       25.08       25.08       25.08       25.08       25.08       25.08       25.08       25.07    
        25.07       25.07       25.07       25.07       25.06       25.06       25.06       25.06       25.05       25.05    
        25.05       25.05       25.04       25.04       25.04       25.04       25.03       25.03       25.03       25.03    
        25.02       25.02       25.02       25.02       25.01       25.01       25.01       25.01       25.00       25.00    
  35    25.07       25.07       25.07       25.07       25.07       25.07       25.07       25.06       25.06       25.06    
        25.06       25.06       25.06       25.05       25.05       25.05       25.05       25.05       25.05       25.04    
        25.04       25.04       25.04       25.03       25.03       25.03       25.03       25.03       25.02       25.02    
        25.02       25.02       25.02       25.01       25.01       25.01       25.01       25.00       25.00       25.00    
  36    25.06       25.06       25.05       25.05       25.05       25.05       25.05       25.05       25.05       25.05    
        25.05       25.05       25.05       25.04       25.04       25.04       25.04       25.04       25.04       25.03    
        25.03       25.03       25.03       25.03       25.03       25.02       25.02       25.02       25.02       25.02    
        25.02       25.01       25.01       25.01       25.01       25.01       25.01       25.00       25.00       25.00    
  37    25.04       25.04       25.04       25.04       25.04       25.04       25.04       25.04       25.04       25.04    
        25.04       25.03       25.03       25.03       25.03       25.03       25.03       25.03       25.03       25.03    
        25.02       25.02       25.02       25.02       25.02       25.02       25.02       25.02       25.01       25.01    
        25.01       25.01       25.01       25.01       25.01       25.01       25.00       25.00       25.00       25.00    
  38    25.03       25.03       25.03       25.03       25.03       25.03       25.03       25.03       25.03       25.02    
        25.02       25.02       25.02       25.02       25.02       25.02       25.02       25.02       25.02       25.02    
        25.02       25.02       25.01       25.01       25.01       25.01       25.01       25.01       25.01       25.01    
        25.01       25.01       25.01       25.01       25.00       25.00       25.00       25.00       25.00       25.00    
  39    25.01       25.01       25.01       25.01       25.01       25.01       25.01       25.01       25.01       25.01    
        25.01       25.01       25.01       25.01       25.01       25.01       25.01       25.01       25.01       25.01    
        25.01       25.01       25.01       25.01       25.01       25.01       25.01       25.01       25.00       25.00    
        25.00       25.00       25.00       25.00       25.00       25.00       25.00       25.00       25.00       25.00    
  40    25.00       25.00       25.00       25.00       25.00       25.00       25.00       25.00       25.00       25.00    
        25.00       25.00       25.00       25.00       25.00       25.00       25.00       25.00       25.00       25.00    
        25.00       25.00       25.00       25.00       25.00       25.00       25.00       25.00       25.00       25.00    
        25.00       25.00       25.00       25.00       25.00       25.00       25.00       25.00       25.00       25.00    



         TIME SUMMARY AT END OF TIME STEP    2 IN STRESS PERIOD    3
                    SECONDS     MINUTES      HOURS       DAYS        YEARS
                    -----------------------------------------------------------
   TIME STEP LENGTH 9.76828E+06 1.62805E+05  2713.4      113.06     0.30954    
 STRESS PERIOD TIME 1.95366E+07 3.25609E+05  5426.8      226.12     0.61908    
         TOTAL TIME 8.07078E+07 1.34513E+06  22419.      934.12      2.5575    
1
 
 SOLVING FOR HEAD 

 CELL CONVERSIONS FOR ITER.=  2  LAYER=  4  STEP=  3  PERIOD=   3   (ROW,COL)
    WET(  1,  1)   

 CELL CONVERSIONS FOR ITER.=  2  LAYER=  7  STEP=  3  PERIOD=   3   (ROW,COL)
    WET(  2,  5)   WET(  4,  4)   WET(  5,  2)   

 CELL CONVERSIONS FOR ITER.=  2  LAYER=  8  STEP=  3  PERIOD=   3   (ROW,COL)
    WET(  3,  8)   WET(  5,  7)   WET(  6,  6)   WET(  7,  5)   WET(  8,  3)   
     6 CALLS TO PCG ROUTINE FOR TIME STEP   3 IN STRESS PERIOD    3
    51 TOTAL ITERATIONS

 MAXIMUM HEAD CHANGE FOR EACH ITERATION (1 INDICATES THE FIRST INNER ITERATION):

    HEAD CHANGE    HEAD CHANGE    HEAD CHANGE    HEAD CHANGE    HEAD CHANGE 
   LAYER,ROW,COL  LAYER,ROW,COL  LAYER,ROW,COL  LAYER,ROW,COL  LAYER,ROW,COL
 ---------------------------------------------------------------------------
  1  0.8803      0 -0.1658      0  0.5007E-01  0  0.4465E-01  0  0.1354E-01
   (  5,  1,  1)  ( 14,  1,  1)  ( 14,  1,  1)  ( 14,  1,  1)  ( 14, 34,  4)
  0 -0.2012E-01  0 -0.6620E-02  0 -0.4274E-02  0 -0.2544E-02  0 -0.2382E-02
   ( 11,  1,  1)  ( 14,  5,  2)  ( 14,  2,  5)  ( 14, 28, 28)  ( 14,  1,  1)
  0 -0.1384E-02  0  0.6095E-03  0  0.4644E-03  0  0.2151E-03  0  0.1407E-03
   ( 14,  1,  1)  ( 12,  4, 31)  (  8,  1,  1)  ( 10, 27, 18)  ( 10,  5,  2)
  0  0.8299E-04  1 -0.9819      0  0.4493      0  0.1093      0  0.2976E-01
   ( 12,  2,  2)  (  5,  1,  1)  ( 14,  1,  1)  ( 14,  1,  1)  (  8,  2,  2)
  0  0.2602E-01  0  0.9618E-02  0  0.4035E-02  0  0.2638E-02  0  0.1677E-02
   (  8,  2,  2)  ( 13,  4,  1)  ( 14,  5,  1)  ( 13,  1,  6)  ( 14,  1,  7)
  0  0.4933E-03  0  0.4419E-03  0  0.2084E-03  0  0.1734E-03  0  0.8379E-04
   ( 14,  2,  8)  ( 11,  7,  5)  ( 14, 27, 27)  (  4,  1,  1)  ( 14, 33, 33)
  1  0.2682E-01  0 -0.1410E-01  0 -0.5007E-02  0  0.1646E-02  0 -0.1542E-02
   (  7,  2,  5)  ( 13,  5,  2)  ( 14,  1,  1)  ( 14, 30,  4)  ( 10,  2,  2)
  0  0.6588E-03  0  0.7262E-03  0  0.3734E-03  0 -0.1443E-03  0  0.1255E-03
   ( 13,  4,  4)  ( 14,  2,  2)  ( 14,  2,  2)  (  9,  4,  4)  ( 14,  3,  1)
  0 -0.4083E-04  1  0.2766E-02  0  0.1208E-02  0  0.3366E-03  0 -0.3777E-03
   ( 14, 30, 30)  (  6,  2,  2)  ( 14,  1,  1)  ( 14, 29, 29)  ( 14,  3,  1)
  0 -0.1568E-03  0 -0.1787E-03  0 -0.9243E-04  1  0.1166E-03  0  0.8431E-04
   ( 14,  1,  1)  ( 14,  1,  1)  (  8,  2,  2)  (  5,  2,  2)  (  5,  2,  2)
  1 -0.4429E-04
   ( 11,  2,  2)

 MAXIMUM RESIDUAL FOR EACH ITERATION (1 INDICATES THE FIRST INNER ITERATION):

    RESIDUAL       RESIDUAL       RESIDUAL       RESIDUAL       RESIDUAL    
   LAYER,ROW,COL  LAYER,ROW,COL  LAYER,ROW,COL  LAYER,ROW,COL  LAYER,ROW,COL
 ---------------------------------------------------------------------------
  1   10.96      0  -3.231      0  -1.903      0   1.772      0   1.117    
   ( 10,  2,  5)  ( 13,  1,  1)  ( 13,  2,  5)  ( 14,  5,  6)  ( 14,  5,  6)
  0  0.5948      0  0.3888      0  0.2010      0 -0.1565      0  0.7626E-01
   ( 14,  3,  8)  ( 14,  3,  8)  ( 12,  6,  6)  (  9,  2,  5)  ( 14,  1,  1)
  0 -0.6898E-01  0 -0.4814E-01  0 -0.2073E-01  0 -0.1496E-01  0  0.7397E-02
   (  7,  1,  1)  (  7,  1,  1)  (  9,  2,  5)  (  9,  2,  5)  (  9,  4,  7)
  0  0.4977E-02  1   89.06      0   10.78      0  -4.837      0   3.212    
   ( 14,  2,  5)  (  5,  1,  1)  (  5,  1,  1)  (  8,  2,  2)  (  5,  1,  1)
  0   2.054      0   1.271      0  0.8724      0  0.6093      0  0.4118    
   (  5,  1,  1)  (  5,  1,  1)  (  5,  1,  1)  (  5,  1,  1)  (  5,  1,  1)
  0  0.3067      0  0.1920      0  0.1442      0  0.8432E-01  0  0.5817E-01
   (  5,  1,  1)  (  5,  1,  1)  (  5,  1,  1)  (  5,  1,  1)  (  5,  1,  1)
  1  -8.415      0  -2.071      0  -1.053      0 -0.7493      0  0.4698    
   (  7,  2,  5)  (  7,  2,  5)  (  7,  2,  5)  (  7,  2,  5)  (  8,  2,  5)
  0  0.2871      0  0.1394      0  0.7823E-01  0  0.5378E-01  0  0.3397E-01
   (  8,  2,  5)  (  8,  2,  5)  (  8,  2,  5)  (  8,  2,  5)  (  8,  2,  5)
  0  0.2590E-01  1 -0.6300      0 -0.2926      0 -0.1694      0 -0.8501E-01
   (  8,  2,  5)  (  6,  2,  2)  (  6,  2,  2)  (  6,  2,  2)  (  7,  2,  3)
  0 -0.6348E-01  0 -0.3609E-01  0 -0.1889E-01  1  0.4695E-01  0  0.3539E-01
   (  7,  2,  3)  (  7,  2,  3)  (  7,  2,  3)  (  7,  4,  2)  (  7,  4,  2)
  1  0.3051E-01
   (  7,  2,  4)



 NO OUTPUT CONTROL FOR STRESS PERIOD    3   TIME STEP    3
 
 SOLVING FOR HEAD 

 CELL CONVERSIONS FOR ITER.=  2  LAYER=  7  STEP=  4  PERIOD=   3   (ROW,COL)
    WET(  3,  5)   WET(  5,  3)   

 CELL CONVERSIONS FOR ITER.=  2  LAYER=  8  STEP=  4  PERIOD=   3   (ROW,COL)
    WET(  1,  9)   WET(  2,  9)   WET(  4,  8)   WET(  6,  7)   WET(  7,  6)   
    WET(  8,  4)   WET(  9,  1)   WET(  9,  2)   

 CELL CONVERSIONS FOR ITER.=  2  LAYER=  9  STEP=  4  PERIOD=   3   (ROW,COL)
    WET(  1, 21)   WET(  1, 22)   WET(  1, 23)   WET(  2, 21)   WET(  2, 22)   
    WET(  2, 23)   WET(  3, 21)   WET(  3, 22)   WET(  3, 23)   WET(  4, 21)   
    WET(  4, 22)   WET(  4, 23)   WET(  5, 21)   WET(  5, 22)   WET(  6, 21)   
    WET(  6, 22)   WET(  7, 20)   WET(  7, 21)   WET(  7, 22)   WET(  8, 20)   
    WET(  8, 21)   WET(  9, 20)   WET(  9, 21)   WET( 10, 19)   WET( 10, 20)   
    WET( 11, 19)   WET( 11, 20)   WET( 12, 18)   WET( 12, 19)   WET( 13, 18)   
    WET( 14, 17)   WET( 15, 16)   WET( 15, 17)   WET( 16, 15)   WET( 16, 16)   
    WET( 17, 14)   WET( 17, 15)   WET( 18, 12)   WET( 18, 13)   WET( 19, 10)   
    WET( 19, 11)   WET( 19, 12)   WET( 20,  7)   WET( 20,  8)   WET( 20,  9)   
    WET( 20, 10)   WET( 20, 11)   WET( 21,  1)   WET( 21,  2)   WET( 21,  3)   
    WET( 21,  4)   WET( 21,  5)   WET( 21,  6)   WET( 21,  7)   WET( 21,  8)   
    WET( 21,  9)   WET( 22,  1)   WET( 22,  2)   WET( 22,  3)   WET( 22,  4)   
    WET( 22,  5)   WET( 22,  6)   WET( 22,  7)   WET( 23,  1)   WET( 23,  2)   
    WET( 23,  3)   WET( 23,  4)   
     5 CALLS TO PCG ROUTINE FOR TIME STEP   4 IN STRESS PERIOD    3
    49 TOTAL ITERATIONS

 MAXIMUM HEAD CHANGE FOR EACH ITERATION (1 INDICATES THE FIRST INNER ITERATION):

    HEAD CHANGE    HEAD CHANGE    HEAD CHANGE    HEAD CHANGE    HEAD CHANGE 
   LAYER,ROW,COL  LAYER,ROW,COL  LAYER,ROW,COL  LAYER,ROW,COL  LAYER,ROW,COL
 ---------------------------------------------------------------------------
  1  0.7666      0 -0.1446      0 -0.2910E-01  0  0.2095E-01  0  0.1209E-01
   (  8,  5,  3)  ( 13,  2,  9)  ( 14,  1, 27)  ( 14,  2, 28)  ( 14,  2, 34)
  0 -0.6612E-02  0 -0.4518E-02  0 -0.5656E-02  0 -0.2731E-02  0 -0.1149E-02
   ( 14,  3, 35)  ( 14, 37,  2)  ( 14,  1,  1)  ( 14,  1,  1)  ( 13,  2,  1)
  0 -0.6378E-03  0  0.3095E-03  0  0.1490E-03  0  0.1355E-03  0  0.1148E-03
   ( 14,  1,  3)  ( 12, 15, 29)  ( 10,  1,  2)  ( 10,  1,  2)  ( 12,  2,  2)
  0  0.1083E-03  0 -0.5063E-04  1  0.5145      0  0.2694      0  0.8750E-01
   (  8,  1,  1)  ( 14, 26, 26)  (  8,  4,  8)  ( 14,  2,  2)  ( 14,  1, 28)
  0  0.4135E-01  0  0.2628E-01  0  0.1755E-01  0  0.1096E-01  0  0.5147E-02
   ( 14, 26,  1)  ( 14, 25,  3)  ( 14, 24,  3)  ( 14,  1, 27)  ( 14, 22, 32)
  0  0.2576E-02  0  0.1803E-02  0 -0.7815E-03  0  0.6322E-03  0 -0.4184E-03
   ( 14, 13, 28)  ( 14, 27, 27)  ( 14, 30, 30)  ( 13,  2,  2)  ( 12, 26, 26)
  0 -0.2375E-03  0  0.1369E-03  0  0.1019E-03  0  0.8292E-04  1  0.1677E-01
   ( 13, 31, 24)  ( 14, 12, 30)  ( 14, 29, 16)  ( 14, 29, 21)  (  7,  5,  3)
  0 -0.9339E-02  0  0.2508E-02  0  0.1539E-02  0 -0.6377E-03  0  0.6662E-03
   ( 13,  5,  3)  (  7,  3,  5)  (  7,  3,  5)  ( 13,  2,  2)  ( 10,  4,  4)
  0  0.2275E-03  0  0.3145E-03  0  0.1024E-03  0  0.7083E-04  1 -0.1021E-02
   ( 14, 28, 28)  ( 14,  2,  2)  ( 14, 24, 24)  ( 14,  1,  1)  (  7,  4,  3)
  0 -0.2843E-03  0  0.3224E-03  0 -0.1000E-03  1  0.6422E-04
   (  7,  4,  3)  ( 14,  4,  4)  ( 14, 32, 32)  ( 14, 32, 32)

 MAXIMUM RESIDUAL FOR EACH ITERATION (1 INDICATES THE FIRST INNER ITERATION):

    RESIDUAL       RESIDUAL       RESIDUAL       RESIDUAL       RESIDUAL    
   LAYER,ROW,COL  LAYER,ROW,COL  LAYER,ROW,COL  LAYER,ROW,COL  LAYER,ROW,COL
 ---------------------------------------------------------------------------
  1   12.91      0  -2.730      0   1.468      0   1.175      0  0.7925    
   ( 11,  2,  9)  (  9,  7,  7)  ( 14,  2,  8)  ( 14,  4,  7)  ( 14,  5,  6)
  0  0.3886      0  0.3323      0  0.1478      0  0.8998E-01  0 -0.5703E-01
   (  6,  1,  1)  ( 14,  4,  4)  ( 14,  4,  4)  ( 14,  3,  5)  (  7,  1,  1)
  0  0.3536E-01  0  0.2825E-01  0 -0.1525E-01  0 -0.1084E-01  0 -0.6130E-02
   ( 14,  1,  1)  ( 14,  1,  1)  (  9,  5,  3)  (  7,  1,  1)  (  7,  1,  1)
  0  0.4316E-02  0  0.3521E-02  1  -31.70      0   9.009      0   6.139    
   ( 14,  2,  2)  ( 13,  2,  2)  (  8,  4,  8)  (  9,  4,  8)  ( 13,  2,  2)
  0   3.195      0  -2.275      0 -0.8032      0 -0.6081      0 -0.3992    
   (  9,  4,  8)  (  7,  2,  2)  (  7,  2,  2)  ( 10,  4,  8)  ( 10,  4,  8)
  0 -0.2050      0 -0.1625      0 -0.1268      0 -0.9443E-01  0 -0.6888E-01
   ( 10,  4,  8)  (  9,  6,  6)  (  9,  6,  6)  (  9,  6,  6)  (  9,  6,  6)
  0 -0.4676E-01  0 -0.3281E-01  0 -0.2107E-01  0 -0.1371E-01  1  -4.937    
   (  9,  6,  6)  (  9,  6,  6)  (  9,  6,  6)  (  9,  6,  6)  (  7,  3,  5)
  0  -1.169      0 -0.6905      0 -0.4164      0  0.2876      0  0.1750    
   (  7,  3,  5)  (  7,  3,  5)  (  7,  3,  5)  (  8,  5,  3)  (  8,  5,  3)
  0  0.1152      0  0.4420E-01  0  0.2850E-01  0  0.1903E-01  1  0.3299    
   (  8,  5,  3)  (  8,  3,  5)  (  9,  4,  8)  (  9,  4,  8)  (  7,  4,  3)
  0  0.2075      0 -0.6781E-01  0 -0.4525E-01  1 -0.5559E-01
   (  7,  4,  3)  (  7,  5,  3)  (  7,  5,  3)  (  7,  3,  5)



 NO OUTPUT CONTROL FOR STRESS PERIOD    3   TIME STEP    4
 
 SOLVING FOR HEAD 

 CELL CONVERSIONS FOR ITER.=  2  LAYER=  8  STEP=  5  PERIOD=   3   (ROW,COL)
    WET(  3,  9)   WET(  5,  8)   WET(  8,  5)   WET(  9,  3)   

 CELL CONVERSIONS FOR ITER.=  3  LAYER=  7  STEP=  5  PERIOD=   3   (ROW,COL)
    WET(  1,  6)   WET(  6,  1)   
     6 CALLS TO PCG ROUTINE FOR TIME STEP   5 IN STRESS PERIOD    3
    52 TOTAL ITERATIONS

 MAXIMUM HEAD CHANGE FOR EACH ITERATION (1 INDICATES THE FIRST INNER ITERATION):

    HEAD CHANGE    HEAD CHANGE    HEAD CHANGE    HEAD CHANGE    HEAD CHANGE 
   LAYER,ROW,COL  LAYER,ROW,COL  LAYER,ROW,COL  LAYER,ROW,COL  LAYER,ROW,COL
 ---------------------------------------------------------------------------
  1  0.5840      0  0.1346      0 -0.3369E-01  0 -0.2619E-01  0 -0.8398E-02
   (  8,  8,  4)  ( 14, 27,  1)  ( 14, 28,  2)  ( 14,  1, 26)  ( 14, 25,  3)
  0  0.6126E-02  0 -0.5461E-02  0 -0.3127E-02  0 -0.2291E-02  0 -0.1289E-02
   ( 14,  1, 26)  ( 14, 24, 24)  ( 14, 31, 22)  ( 13,  2,  2)  ( 14,  2,  2)
  0  0.7375E-03  0  0.5677E-03  0  0.3139E-03  0  0.1872E-03  0 -0.8150E-04
   ( 14, 15, 33)  ( 10, 15, 26)  ( 11, 22, 27)  ( 11, 23, 23)  ( 14, 25, 25)
  1  0.4391      0  0.2744      0  0.5394E-01  0  0.1438E-01  0  0.6029E-02
   (  8,  5,  8)  ( 14,  2,  2)  ( 14,  3,  1)  (  7,  2,  2)  (  7,  2,  2)
  0  0.5132E-02  0  0.1276E-02  0  0.1134E-02  0 -0.3576E-03  0 -0.4189E-03
   (  5,  2,  1)  (  6,  2,  2)  (  7,  3,  3)  ( 13,  1,  2)  ( 14,  3,  3)
  0  0.1320E-03  0  0.1313E-03  0  0.6028E-04  1 -0.1113      0  0.7145E-01
   ( 14, 30, 30)  ( 13,  8,  6)  ( 11,  5,  9)  (  8,  1,  6)  (  7,  1,  6)
  0 -0.8710E-02  0 -0.2039E-02  0  0.2602E-02  0  0.5930E-03  0  0.7800E-03
   ( 14,  1,  1)  ( 14, 34,  3)  ( 11,  6,  2)  ( 14, 27, 27)  (  7,  1,  1)
  0  0.3814E-03  0  0.2921E-03  0  0.9850E-04  1 -0.7756E-02  0  0.4646E-02
   ( 13,  1,  2)  ( 14,  3,  3)  ( 14,  3,  3)  (  7,  5,  1)  (  7,  6,  1)
  0 -0.7180E-03  0  0.7601E-03  0 -0.2480E-03  0  0.2658E-03  0  0.1010E-03
   ( 14, 30, 30)  ( 10,  3,  3)  ( 14, 22, 22)  ( 14,  4,  1)  ( 14, 35, 27)
  0  0.1026E-03  0  0.3577E-04  1 -0.6780E-03  0 -0.2066E-03  0 -0.1973E-03
   ( 13,  2,  2)  ( 14,  8,  1)  (  7,  5,  1)  (  7,  5,  1)  (  7,  5,  1)
  0 -0.3997E-04  1  0.3207E-04
   ( 14, 30,  4)  ( 13,  4,  2)

 MAXIMUM RESIDUAL FOR EACH ITERATION (1 INDICATES THE FIRST INNER ITERATION):

    RESIDUAL       RESIDUAL       RESIDUAL       RESIDUAL       RESIDUAL    
   LAYER,ROW,COL  LAYER,ROW,COL  LAYER,ROW,COL  LAYER,ROW,COL  LAYER,ROW,COL
 ---------------------------------------------------------------------------
  1   5.339      0  -1.540      0  -1.281      0  0.8535      0  0.5544    
   ( 10,  4,  8)  (  9,  7,  7)  ( 13,  3,  9)  ( 14,  8,  3)  ( 14,  3,  9)
  0  0.4226      0 -0.2007      0  0.1398      0 -0.8452E-01  0  0.4884E-01
   ( 14,  3,  9)  (  9,  4,  9)  ( 14,  4,  8)  ( 10,  3,  9)  ( 14,  5,  7)
  0 -0.3758E-01  0  0.2146E-01  0  0.9920E-02  0  0.7454E-02  0 -0.4202E-02
   ( 11,  4,  8)  ( 14,  3,  9)  (  6,  2,  2)  ( 13,  8,  4)  ( 10,  9,  3)
  1  -55.87      0  -4.676      0  -2.988      0  -1.697      0  -1.133    
   (  8,  5,  8)  (  8,  5,  8)  (  7,  2,  2)  (  7,  2,  2)  (  7,  2,  2)
  0 -0.6768      0 -0.4401      0 -0.2589      0 -0.1807      0 -0.1104    
   (  7,  2,  2)  (  7,  2,  2)  ( 10,  5,  8)  ( 10,  5,  8)  (  9,  5,  7)
  0 -0.8355E-01  0 -0.4961E-01  0 -0.2811E-01  1  -19.51      0   1.219    
   (  9,  5,  7)  (  9,  5,  7)  (  9,  5,  7)  (  7,  1,  6)  (  8,  6,  1)
  0 -0.5003      0 -0.4343      0 -0.3023      0 -0.2350      0 -0.1356    
   (  8,  1,  5)  (  8,  1,  5)  (  8,  1,  5)  (  8,  1,  5)  (  8,  1,  5)
  0 -0.8903E-01  0 -0.5775E-01  0 -0.4346E-01  1   2.389      0  0.5950    
   (  8,  1,  5)  (  8,  1,  5)  (  8,  1,  5)  (  7,  5,  1)  (  7,  5,  1)
  0 -0.3643      0 -0.2118      0 -0.1692      0 -0.8731E-01  0 -0.4338E-01
   (  7,  6,  1)  (  7,  6,  1)  (  7,  6,  1)  (  7,  6,  1)  (  9,  5,  1)
  0 -0.1905E-01  0 -0.1171E-01  1  0.2131      0  0.1376      0  0.3783E-01
   (  7,  6,  1)  (  8,  1,  5)  (  7,  5,  1)  (  7,  5,  1)  (  7,  5,  1)
  0  0.2530E-01  1  0.3729E-01
   (  7,  5,  1)  (  7,  5,  1)



 NO OUTPUT CONTROL FOR STRESS PERIOD    3   TIME STEP    5
 
 SOLVING FOR HEAD 

 CELL CONVERSIONS FOR ITER.=  2  LAYER=  6  STEP=  6  PERIOD=   3   (ROW,COL)
    WET(  3,  3)   

 CELL CONVERSIONS FOR ITER.=  2  LAYER=  7  STEP=  6  PERIOD=   3   (ROW,COL)
    WET(  2,  6)   WET(  4,  5)   WET(  5,  4)   WET(  6,  2)   

 CELL CONVERSIONS FOR ITER.=  2  LAYER=  8  STEP=  6  PERIOD=   3   (ROW,COL)
    WET(  1, 10)   WET(  2, 10)   WET(  4,  9)   WET(  5,  9)   WET(  6,  8)   
    WET(  7,  7)   WET(  8,  6)   WET(  9,  4)   WET(  9,  5)   WET( 10,  1)   
    WET( 10,  2)   

 CELL CONVERSIONS FOR ITER.=  2  LAYER=  9  STEP=  6  PERIOD=   3   (ROW,COL)
    WET(  8, 22)   WET( 10, 21)   WET( 11, 21)   WET( 12, 20)   WET( 12, 21)   
    WET( 13, 19)   WET( 13, 20)   WET( 14, 18)   WET( 14, 19)   WET( 14, 20)   
    WET( 15, 18)   WET( 15, 19)   WET( 16, 17)   WET( 16, 18)   WET( 17, 16)   
    WET( 17, 17)   WET( 18, 14)   WET( 18, 15)   WET( 18, 16)   WET( 19, 13)   
    WET( 19, 14)   WET( 19, 15)   WET( 20, 12)   WET( 20, 13)   WET( 20, 14)   
    WET( 21, 10)   WET( 21, 11)   WET( 21, 12)   WET( 22,  8)   
     6 CALLS TO PCG ROUTINE FOR TIME STEP   6 IN STRESS PERIOD    3
    49 TOTAL ITERATIONS

 MAXIMUM HEAD CHANGE FOR EACH ITERATION (1 INDICATES THE FIRST INNER ITERATION):

    HEAD CHANGE    HEAD CHANGE    HEAD CHANGE    HEAD CHANGE    HEAD CHANGE 
   LAYER,ROW,COL  LAYER,ROW,COL  LAYER,ROW,COL  LAYER,ROW,COL  LAYER,ROW,COL
 ---------------------------------------------------------------------------
  1  0.6327      0 -0.1151      0 -0.2738E-01  0  0.1810E-01  0  0.1072E-01
   (  8,  5,  4)  ( 13, 10,  2)  ( 14,  1, 29)  ( 14,  3, 32)  ( 14,  2, 36)
  0 -0.6917E-02  0 -0.3783E-02  0 -0.3293E-02  0 -0.2154E-02  0 -0.2074E-02
   ( 14, 36,  3)  ( 14, 37,  2)  ( 14,  1,  1)  ( 14,  2,  2)  ( 14,  3,  3)
  0 -0.7008E-03  0  0.2490E-03  0  0.2495E-03  0  0.9936E-04  1  0.3949    
   ( 14,  3,  3)  ( 10, 20, 27)  (  9,  3,  3)  (  8,  3,  3)  (  8,  7,  7)
  0  0.1948      0 -0.7726E-01  0  0.2118E-01  0  0.2012E-01  0  0.9387E-02
   ( 13,  2,  2)  ( 13,  2,  2)  ( 14, 18, 26)  ( 14, 20, 14)  ( 14, 21, 21)
  0  0.5636E-02  0  0.3509E-02  0  0.2373E-02  0  0.1219E-02  0 -0.6936E-03
   ( 14, 21, 21)  ( 14, 26, 20)  ( 14, 26, 26)  ( 13, 15, 15)  ( 14, 33,  4)
  0  0.4602E-03  0  0.2251E-03  0  0.1266E-03  0  0.9734E-04  1  0.2186E-01
   (  9,  1,  2)  ( 14, 14, 13)  ( 14, 13, 13)  ( 14, 12, 13)  (  6,  3,  3)
  0 -0.1252E-01  0  0.4233E-02  0  0.1502E-02  0  0.1044E-02  0 -0.4688E-03
   ( 13,  3,  3)  (  6,  3,  3)  (  6,  3,  3)  ( 13,  3,  3)  ( 14,  3, 30)
  0  0.6603E-03  0  0.2416E-03  0  0.1389E-03  0  0.7039E-04  1  0.2179E-02
   ( 14,  4,  1)  ( 14, 30, 30)  ( 10,  2,  2)  ( 12,  5, 10)  (  6,  3,  3)
  0 -0.8950E-03  0  0.4844E-03  0  0.3009E-03  0  0.1385E-03  0 -0.1440E-03
   ( 14,  2,  2)  (  6,  3,  3)  ( 14,  2,  2)  ( 14,  2,  2)  (  8,  2,  2)
  0 -0.7969E-04  1  0.2325E-03  0 -0.8855E-04  1 -0.5892E-04
   (  7,  2,  2)  (  6,  2,  2)  (  6,  2,  3)  ( 13,  2,  2)

 MAXIMUM RESIDUAL FOR EACH ITERATION (1 INDICATES THE FIRST INNER ITERATION):

    RESIDUAL       RESIDUAL       RESIDUAL       RESIDUAL       RESIDUAL    
   LAYER,ROW,COL  LAYER,ROW,COL  LAYER,ROW,COL  LAYER,ROW,COL  LAYER,ROW,COL
 ---------------------------------------------------------------------------
  1   10.86      0  -2.583      0   1.248      0   1.209      0  0.6417    
   ( 11,  2, 10)  ( 13,  3,  3)  ( 14,  2,  9)  (  8,  3,  3)  ( 14,  4,  8)
  0 -0.3756      0  0.2312      0  0.1548      0  0.1543      0 -0.5175E-01
   ( 10,  3,  3)  ( 14,  4,  5)  ( 14,  3,  3)  ( 13,  3,  3)  (  9,  5,  4)
  0 -0.5570E-01  0 -0.3481E-01  0 -0.1841E-01  0  0.1087E-01  1  -26.79    
   (  9,  3,  3)  (  8,  3,  3)  ( 13,  4,  4)  ( 13,  3,  3)  (  8,  4,  9)
  0   7.704      0   3.329      0   2.323      0   1.084      0 -0.6767    
   ( 13,  2,  2)  (  9,  4,  9)  (  9,  7,  7)  (  9,  7,  7)  (  9,  6,  2)
  0 -0.5242      0 -0.3985      0 -0.3040      0 -0.2079      0 -0.1632    
   (  9,  6,  7)  (  9,  6,  7)  (  9,  6,  7)  (  9,  6,  7)  (  9,  6,  7)
  0 -0.1144      0 -0.8175E-01  0 -0.5918E-01  0 -0.3877E-01  1  -6.391    
   (  9,  6,  7)  (  9,  6,  7)  (  9,  6,  7)  (  9,  6,  7)  (  6,  3,  3)
  0  -2.030      0  -1.021      0 -0.6985      0 -0.4238      0  0.2523    
   (  6,  3,  3)  (  6,  3,  3)  (  6,  3,  3)  (  6,  3,  3)  (  7,  3,  3)
  0 -0.1136      0 -0.6380E-01  0 -0.4178E-01  0  0.2866E-01  1 -0.7888    
   (  6,  3,  3)  (  6,  3,  3)  (  6,  3,  3)  (  7,  3,  3)  (  6,  3,  3)
  0 -0.4424      0 -0.2041      0 -0.1329      0 -0.9635E-01  0 -0.5024E-01
   (  6,  3,  3)  (  6,  3,  3)  (  6,  3,  3)  (  6,  3,  3)  (  6,  3,  3)
  0  0.2351E-01  1 -0.1076      0 -0.8085E-01  1 -0.7921E-01
   (  7,  3,  3)  (  6,  3,  3)  (  6,  3,  3)  (  6,  3,  3)



 NO OUTPUT CONTROL FOR STRESS PERIOD    3   TIME STEP    6
 
 SOLVING FOR HEAD 

 CELL CONVERSIONS FOR ITER.=  2  LAYER=  4  STEP=  7  PERIOD=   3   (ROW,COL)
    WET(  1,  2)   WET(  2,  1)   

 CELL CONVERSIONS FOR ITER.=  2  LAYER=  6  STEP=  7  PERIOD=   3   (ROW,COL)
    WET(  1,  4)   WET(  4,  1)   

 CELL CONVERSIONS FOR ITER.=  2  LAYER=  7  STEP=  7  PERIOD=   3   (ROW,COL)
    WET(  3,  6)   WET(  6,  3)   

 CELL CONVERSIONS FOR ITER.=  2  LAYER=  8  STEP=  7  PERIOD=   3   (ROW,COL)
    WET(  3, 10)   WET(  7,  8)   WET(  8,  7)   WET( 10,  3)   

 CELL CONVERSIONS FOR ITER.=  2  LAYER=  9  STEP=  7  PERIOD=   3   (ROW,COL)
    WET(  1, 24)   WET(  2, 24)   WET(  3, 24)   WET(  4, 24)   WET(  5, 23)   
    WET(  5, 24)   WET(  6, 23)   WET(  6, 24)   WET(  7, 23)   WET(  8, 23)   
    WET(  9, 22)   WET( 10, 22)   WET( 22,  9)   WET( 22, 10)   WET( 23,  5)   
    WET( 23,  6)   WET( 23,  7)   WET( 23,  8)   WET( 24,  1)   WET( 24,  2)   
    WET( 24,  3)   WET( 24,  4)   WET( 24,  5)   WET( 24,  6)   
     6 CALLS TO PCG ROUTINE FOR TIME STEP   7 IN STRESS PERIOD    3
    54 TOTAL ITERATIONS

 MAXIMUM HEAD CHANGE FOR EACH ITERATION (1 INDICATES THE FIRST INNER ITERATION):

    HEAD CHANGE    HEAD CHANGE    HEAD CHANGE    HEAD CHANGE    HEAD CHANGE 
   LAYER,ROW,COL  LAYER,ROW,COL  LAYER,ROW,COL  LAYER,ROW,COL  LAYER,ROW,COL
 ---------------------------------------------------------------------------
  1  0.5971      0 -0.1007      0  0.2198E-01  0  0.1386E-01  0  0.6953E-02
   (  8,  6,  3)  ( 12,  6,  3)  ( 14,  5, 29)  ( 14,  3, 33)  ( 14, 37,  2)
  0 -0.5949E-02  0 -0.4930E-02  0 -0.2357E-02  0 -0.1240E-02  0 -0.1173E-02
   ( 14, 36,  3)  ( 13,  2,  2)  ( 12,  2,  2)  ( 14,  5,  4)  ( 14,  1,  4)
  0  0.6629E-03  0  0.4632E-03  0  0.1675E-03  0 -0.1240E-03  0 -0.6891E-04
   ( 14, 24, 29)  ( 11, 24, 24)  ( 14, 35, 28)  ( 14, 12, 13)  ( 14, 26, 22)
  1 -0.8360      0  0.3244      0  0.9210E-01  0  0.7399E-01  0  0.2245E-01
   (  5,  2,  1)  ( 13,  1,  2)  ( 14,  1, 29)  ( 14,  1,  1)  ( 14,  3,  3)
  0  0.1172E-01  0  0.6623E-02  0  0.3203E-02  0  0.2519E-02  0  0.1531E-02
   ( 12,  4,  2)  ( 10,  1,  4)  ( 14, 27,  1)  ( 14,  1,  1)  ( 14, 29, 29)
  0 -0.7011E-03  0  0.3709E-03  0 -0.2341E-03  0  0.1341E-03  0  0.1663E-03
   ( 14, 32, 32)  ( 14, 35, 35)  ( 14, 27, 27)  (  5,  1,  1)  (  5,  1,  1)
  0  0.1316E-03  0  0.5815E-04  1 -0.4309E-01  0 -0.2936E-01  0  0.9908E-02
   (  5,  1,  1)  (  5,  1,  1)  (  4,  1,  1)  (  4,  1,  1)  ( 13,  2,  2)
  0  0.1664E-02  0 -0.3000E-02  0 -0.1085E-02  0 -0.7693E-03  0 -0.2034E-03
   ( 14, 23, 32)  ( 14,  1,  1)  (  7,  1,  2)  (  7,  1,  2)  ( 11,  1,  1)
  0 -0.2665E-03  0 -0.6783E-04  1 -0.3398E-02  0 -0.2110E-02  0 -0.5455E-03
   ( 10,  1,  1)  ( 14, 31, 31)  (  6,  1,  3)  ( 14,  2,  2)  (  6,  3,  1)
  0  0.5915E-03  0  0.2546E-03  0  0.1920E-03  0 -0.9336E-04  1 -0.3277E-03
   ( 12,  2,  2)  ( 14,  2,  2)  ( 14,  1,  2)  (  8,  2,  2)  (  6,  1,  3)
  0 -0.1168E-03  0 -0.2040E-03  0  0.3922E-04  1  0.3912E-04
   (  6,  1,  3)  ( 14,  2,  2)  (  5,  2,  2)  ( 14,  2,  2)

 MAXIMUM RESIDUAL FOR EACH ITERATION (1 INDICATES THE FIRST INNER ITERATION):

    RESIDUAL       RESIDUAL       RESIDUAL       RESIDUAL       RESIDUAL    
   LAYER,ROW,COL  LAYER,ROW,COL  LAYER,ROW,COL  LAYER,ROW,COL  LAYER,ROW,COL
 ---------------------------------------------------------------------------
  1   9.823      0  -2.736      0  -1.480      0  0.9176      0  0.6462    
   ( 10,  3,  6)  ( 13,  3,  6)  ( 13,  3,  6)  ( 14,  6,  7)  (  9,  3,  6)
  0 -0.3576      0  0.2161      0  0.1278      0 -0.8029E-01  0  0.5925E-01
   (  9,  8,  8)  ( 14, 16, 16)  ( 14, 14, 18)  ( 11,  7,  8)  ( 14,  3,  6)
  0  0.3193E-01  0 -0.2192E-01  0 -0.1715E-01  0 -0.7677E-02  0 -0.5285E-02
   ( 13,  6,  3)  (  9,  6,  3)  (  9,  6,  3)  (  9,  6,  3)  ( 10,  7,  8)
  1   62.36      0   14.82      0   8.049      0  -3.544      0  -2.859    
   (  5,  1,  2)  (  5,  1,  2)  (  5,  1,  2)  (  5,  1,  1)  (  5,  1,  1)
  0  -2.247      0  -1.710      0  -1.323      0 -0.9684      0 -0.7088    
   (  5,  1,  1)  (  5,  1,  1)  (  5,  1,  1)  (  5,  1,  1)  (  5,  1,  1)
  0 -0.5360      0 -0.3983      0 -0.2956      0 -0.2240      0 -0.1585    
   (  5,  1,  1)  (  5,  1,  1)  (  5,  1,  1)  (  5,  1,  1)  (  5,  1,  1)
  0 -0.9809E-01  0 -0.5538E-01  1   15.52      0   4.668      0   2.830    
   (  5,  1,  1)  (  5,  1,  1)  (  4,  1,  1)  (  4,  1,  1)  (  4,  1,  1)
  0   2.230      0  0.8578      0  0.4329      0  0.2178      0  0.1727    
   (  4,  1,  1)  (  4,  1,  1)  (  4,  1,  1)  (  4,  1,  1)  (  4,  1,  1)
  0  0.1145      0  0.8245E-01  1   1.227      0  0.5108      0  0.2532    
   (  4,  1,  1)  (  4,  1,  1)  (  6,  1,  3)  (  6,  1,  3)  (  6,  1,  3)
  0  0.1553      0  0.1141      0  0.4755E-01  0 -0.1823E-01  1  0.1388    
   (  6,  1,  3)  (  6,  1,  3)  (  6,  1,  3)  (  7,  1,  3)  (  6,  1,  3)
  0  0.1035      0  0.3205E-01  0  0.1931E-01  1  0.3020E-01
   (  6,  1,  3)  (  6,  1,  3)  (  6,  1,  3)  (  6,  3,  1)



 NO OUTPUT CONTROL FOR STRESS PERIOD    3   TIME STEP    7
 
 SOLVING FOR HEAD 

 CELL CONVERSIONS FOR ITER.=  2  LAYER=  6  STEP=  8  PERIOD=   3   (ROW,COL)
    WET(  2,  4)   WET(  4,  2)   

 CELL CONVERSIONS FOR ITER.=  2  LAYER=  8  STEP=  8  PERIOD=   3   (ROW,COL)
    WET(  4, 10)   WET(  6,  9)   WET(  9,  6)   WET( 10,  4)   

 CELL CONVERSIONS FOR ITER.=  2  LAYER=  9  STEP=  8  PERIOD=   3   (ROW,COL)
    WET(  9, 23)   WET( 10, 23)   WET( 11, 22)   WET( 12, 22)   WET( 13, 21)   
    WET( 13, 22)   WET( 14, 21)   WET( 15, 20)   WET( 16, 19)   WET( 16, 20)   
    WET( 17, 18)   WET( 17, 19)   WET( 18, 17)   WET( 18, 18)   WET( 19, 16)   
    WET( 19, 17)   WET( 20, 15)   WET( 20, 16)   WET( 21, 13)   WET( 21, 14)   
    WET( 22, 11)   WET( 22, 12)   WET( 22, 13)   WET( 23,  9)   WET( 23, 10)   
     5 CALLS TO PCG ROUTINE FOR TIME STEP   8 IN STRESS PERIOD    3
    45 TOTAL ITERATIONS

 MAXIMUM HEAD CHANGE FOR EACH ITERATION (1 INDICATES THE FIRST INNER ITERATION):

    HEAD CHANGE    HEAD CHANGE    HEAD CHANGE    HEAD CHANGE    HEAD CHANGE 
   LAYER,ROW,COL  LAYER,ROW,COL  LAYER,ROW,COL  LAYER,ROW,COL  LAYER,ROW,COL
 ---------------------------------------------------------------------------
  1  0.6185      0  0.9955E-01  0 -0.3798E-01  0 -0.2094E-01  0 -0.1006E-01
   (  4,  1,  2)  ( 14, 29,  1)  ( 14,  1, 28)  ( 14,  1,  1)  ( 14,  1,  1)
  0 -0.6026E-02  0 -0.3365E-02  0 -0.2250E-02  0  0.1570E-02  0  0.1311E-02
   (  9,  4,  2)  ( 14,  2, 36)  ( 14, 32, 21)  ( 10,  2, 28)  ( 11,  1, 31)
  0  0.6907E-03  0 -0.3342E-03  0  0.2509E-03  0 -0.1130E-03  0 -0.7945E-04
   ( 14, 31, 31)  ( 14,  4,  2)  ( 14,  1,  1)  ( 13,  1,  2)  (  7,  1,  1)
  1 -0.3086      0 -0.1563      0  0.4262E-01  0  0.2108E-01  0  0.1215E-01
   ( 10, 18, 18)  ( 13, 11,  1)  ( 14, 10, 28)  ( 13, 18, 18)  ( 14, 15, 25)
  0  0.1061E-01  0  0.4786E-02  0  0.2828E-02  0  0.1373E-02  0  0.7923E-03
   ( 14, 26, 26)  ( 14, 25, 32)  ( 14, 32, 32)  ( 13, 15, 18)  ( 14,  4, 34)
  0 -0.5715E-03  0 -0.3014E-03  0  0.1822E-03  0  0.1241E-03  0  0.7478E-04
   ( 14, 28, 28)  ( 10, 25, 26)  ( 13, 14, 15)  ( 13, 14, 14)  ( 13, 13, 14)
  1 -0.1137E-01  0  0.7188E-02  0  0.1843E-02  0 -0.8462E-03  0 -0.5029E-03
   (  6,  2,  3)  ( 14,  3,  3)  (  6,  2,  4)  ( 14,  3,  3)  ( 13,  3,  2)
  0 -0.4981E-03  0  0.1816E-03  0  0.1317E-03  0 -0.4931E-04  1 -0.1300E-02
   ( 13,  3,  2)  (  8,  3,  2)  (  8,  3,  2)  ( 14, 28, 21)  (  6,  2,  3)
  0 -0.5617E-03  0 -0.3330E-03  0  0.1075E-03  0 -0.8760E-04  1 -0.8678E-04
   (  6,  3,  2)  ( 14,  2,  2)  ( 14, 27, 27)  ( 14,  1,  1)  (  6,  2,  3)

 MAXIMUM RESIDUAL FOR EACH ITERATION (1 INDICATES THE FIRST INNER ITERATION):

    RESIDUAL       RESIDUAL       RESIDUAL       RESIDUAL       RESIDUAL    
   LAYER,ROW,COL  LAYER,ROW,COL  LAYER,ROW,COL  LAYER,ROW,COL  LAYER,ROW,COL
 ---------------------------------------------------------------------------
  1   10.43      0   2.431      0   2.327      0  -1.332      0  -1.167    
   (  7,  1,  2)  ( 14,  1,  1)  ( 14,  1,  1)  (  6,  1,  1)  (  6,  1,  1)
  0 -0.7399      0 -0.2967      0  0.1816      0  0.1713      0  0.1002    
   (  6,  1,  1)  (  6,  1,  1)  (  8,  1,  1)  (  8,  1,  1)  (  8,  1,  1)
  0 -0.7337E-01  0 -0.4711E-01  0  0.2464E-01  0  0.1721E-01  0  0.9064E-02
   ( 14,  1,  1)  ( 14,  1,  1)  (  7,  1,  1)  (  7,  1,  1)  (  7,  1,  1)
  1  -26.44      0   5.914      0   3.201      0   1.480      0  0.8825    
   (  8,  4, 10)  (  9,  6,  9)  (  9,  6,  9)  (  9,  6,  9)  (  9,  4, 10)
  0 -0.4669      0 -0.4406      0 -0.2943      0 -0.1680      0  0.9930E-01
   ( 10,  6,  9)  ( 10,  6,  9)  ( 10,  4, 10)  ( 10,  4, 10)  ( 11, 15, 19)
  0  0.6314E-01  0 -0.4535E-01  0 -0.3280E-01  0 -0.2273E-01  0 -0.1579E-01
   ( 11, 15, 19)  (  9,  6,  8)  (  9,  6,  8)  (  9,  4,  9)  (  9,  4,  9)
  1   3.753      0  -1.105      0 -0.6328      0 -0.4224      0 -0.2758    
   (  6,  2,  3)  (  6,  2,  4)  (  6,  2,  4)  (  6,  2,  4)  (  6,  2,  4)
  0  0.1148      0  0.7069E-01  0  0.4251E-01  0  0.3138E-01  1  0.4785    
   (  7,  2,  4)  (  7,  2,  4)  (  7,  2,  4)  (  7,  2,  4)  (  6,  3,  2)
  0 -0.2539      0 -0.1112      0  0.8313E-01  0  0.6400E-01  1 -0.1034    
   (  6,  2,  2)  (  6,  2,  2)  (  7,  2,  2)  (  7,  2,  2)  (  6,  2,  2)



 NO OUTPUT CONTROL FOR STRESS PERIOD    3   TIME STEP    8
 
 SOLVING FOR HEAD 

 CELL CONVERSIONS FOR ITER.=  2  LAYER=  7  STEP=  9  PERIOD=   3   (ROW,COL)
    WET(  5,  5)   

 CELL CONVERSIONS FOR ITER.=  2  LAYER=  8  STEP=  9  PERIOD=   3   (ROW,COL)
    WET(  1, 11)   WET(  2, 11)   WET(  5, 10)   WET(  7,  9)   WET(  8,  8)   
    WET(  9,  7)   WET( 10,  5)   WET( 11,  1)   WET( 11,  2)   

 CELL CONVERSIONS FOR ITER.=  2  LAYER=  9  STEP=  9  PERIOD=   3   (ROW,COL)
    WET(  1, 25)   WET(  1, 26)   WET(  2, 25)   WET(  2, 26)   WET(  3, 25)   
    WET(  3, 26)   WET(  4, 25)   WET(  4, 26)   WET(  5, 25)   WET(  6, 25)   
    WET(  7, 24)   WET(  7, 25)   WET(  8, 24)   WET(  9, 24)   WET( 11, 23)   
    WET( 23, 11)   WET( 24,  7)   WET( 24,  8)   WET( 24,  9)   WET( 25,  1)   
    WET( 25,  2)   WET( 25,  3)   WET( 25,  4)   WET( 25,  5)   WET( 25,  6)   
    WET( 25,  7)   WET( 26,  1)   WET( 26,  2)   WET( 26,  3)   WET( 26,  4)   
     5 CALLS TO PCG ROUTINE FOR TIME STEP   9 IN STRESS PERIOD    3
    44 TOTAL ITERATIONS

 MAXIMUM HEAD CHANGE FOR EACH ITERATION (1 INDICATES THE FIRST INNER ITERATION):

    HEAD CHANGE    HEAD CHANGE    HEAD CHANGE    HEAD CHANGE    HEAD CHANGE 
   LAYER,ROW,COL  LAYER,ROW,COL  LAYER,ROW,COL  LAYER,ROW,COL  LAYER,ROW,COL
 ---------------------------------------------------------------------------
  1  0.5186      0 -0.9367E-01  0  0.2067E-01  0  0.1304E-01  0 -0.6524E-02
   (  8,  7,  1)  ( 13,  1,  7)  ( 14,  5, 29)  ( 14,  3, 33)  ( 14,  6, 35)
  0 -0.5569E-02  0 -0.2563E-02  0 -0.2680E-02  0  0.1146E-02  0  0.9767E-03
   ( 14, 37,  3)  ( 14, 28,  1)  ( 12,  5,  5)  ( 10,  1, 32)  ( 12, 22, 28)
  0  0.6132E-03  0  0.2848E-03  0 -0.2293E-03  0 -0.1175E-03  0 -0.8348E-04
   ( 10, 26, 26)  ( 14, 35, 18)  ( 13,  5,  5)  ( 14, 20, 29)  ( 14, 33, 19)
  1 -0.3836      0 -0.1779      0  0.8753E-01  0  0.4955E-01  0  0.2365E-01
   ( 10,  2, 26)  ( 14, 31,  1)  ( 14,  1, 31)  ( 14,  1, 29)  ( 14,  3, 28)
  0  0.1183E-01  0  0.5065E-02  0  0.3632E-02  0 -0.2128E-02  0  0.1183E-02
   ( 14,  3, 27)  ( 14,  2, 36)  ( 14, 26, 26)  ( 14, 29, 29)  ( 14, 31, 31)
  0  0.5890E-03  0  0.3454E-03  0  0.2476E-03  0  0.1437E-03  0  0.7931E-04
   ( 13,  2, 22)  ( 14,  1, 22)  ( 13,  1, 21)  ( 13, 20,  1)  ( 14,  2, 19)
  1  0.1393E-01  0  0.5306E-02  0 -0.1583E-02  0 -0.9872E-03  0 -0.5358E-03
   (  7,  5,  5)  (  7,  5,  5)  ( 11,  6,  4)  ( 11,  6,  4)  (  8,  2,  2)
  0 -0.5307E-03  0  0.1441E-03  0 -0.1499E-03  0  0.9937E-04  1 -0.4337E-03
   (  8,  2,  2)  ( 14, 36, 36)  ( 14, 28, 28)  ( 14, 30, 30)  (  7,  4,  5)
  0  0.1510E-03  0  0.2010E-03  0 -0.5934E-04  1 -0.3996E-04
   ( 14, 29, 29)  ( 14,  1,  1)  ( 14, 36,  7)  ( 14,  1,  1)

 MAXIMUM RESIDUAL FOR EACH ITERATION (1 INDICATES THE FIRST INNER ITERATION):

    RESIDUAL       RESIDUAL       RESIDUAL       RESIDUAL       RESIDUAL    
   LAYER,ROW,COL  LAYER,ROW,COL  LAYER,ROW,COL  LAYER,ROW,COL  LAYER,ROW,COL
 ---------------------------------------------------------------------------
  1   7.309      0  -1.735      0  -1.034      0  0.7684      0  0.4945    
   (  9,  4,  6)  ( 13,  1,  7)  ( 13,  4,  6)  ( 14,  7,  8)  ( 14,  5,  9)
  0  0.2737      0  0.1815      0  0.9471E-01  0 -0.1014      0 -0.3823E-01
   ( 14, 15, 19)  ( 14, 15, 19)  ( 14, 14, 19)  (  9,  5,  5)  ( 10,  8,  8)
  0 -0.2393E-01  0  0.2289E-01  0 -0.8727E-02  0 -0.7209E-02  0 -0.5210E-02
   ( 11,  4, 10)  ( 12,  5,  5)  (  9,  1,  7)  (  9,  6,  4)  (  9,  6,  4)
  1  -25.33      0  -6.974      0  -3.513      0   1.733      0  0.8868    
   (  8,  1, 11)  (  8,  1, 11)  (  8,  1, 11)  (  9,  5, 10)  (  9,  1, 11)
  0 -0.5243      0 -0.4203      0 -0.2581      0 -0.1601      0 -0.1199    
   ( 10,  5, 10)  ( 10,  5, 10)  ( 10,  5, 10)  (  9,  7,  8)  (  9,  7,  8)
  0 -0.8935E-01  0 -0.6667E-01  0 -0.4608E-01  0 -0.3133E-01  0 -0.2151E-01
   (  9,  7,  8)  (  9,  7,  8)  (  9,  7,  8)  (  9,  7,  8)  (  9,  7,  8)
  1  -4.031      0  -1.179      0 -0.6270      0 -0.3705      0  0.2616    
   (  7,  5,  5)  (  7,  5,  5)  (  7,  5,  5)  (  7,  5,  5)  (  8,  5,  5)
  0  0.1764      0  0.1060      0  0.5372E-01  0  0.3441E-01  1 -0.2112    
   (  8,  5,  5)  (  8,  5,  5)  (  8,  5,  5)  (  8,  5,  5)  (  7,  5,  5)
  0 -0.1672      0 -0.6716E-01  0 -0.3288E-01  1 -0.3646E-01
   (  7,  5,  5)  (  7,  5,  5)  (  7,  5,  5)  (  7,  5,  5)



 NO OUTPUT CONTROL FOR STRESS PERIOD    3   TIME STEP    9
 
 SOLVING FOR HEAD 

 CELL CONVERSIONS FOR ITER.=  2  LAYER=  7  STEP= 10  PERIOD=   3   (ROW,COL)
    WET(  1,  7)   WET(  2,  7)   WET(  4,  6)   WET(  6,  4)   WET(  7,  1)   
    WET(  7,  2)   

 CELL CONVERSIONS FOR ITER.=  2  LAYER=  8  STEP= 10  PERIOD=   3   (ROW,COL)
    WET(  3, 11)   WET(  4, 11)   WET(  6, 10)   WET( 10,  6)   WET( 11,  3)   
    WET( 11,  4)   

 CELL CONVERSIONS FOR ITER.=  2  LAYER=  9  STEP= 10  PERIOD=   3   (ROW,COL)
    WET( 10, 24)   WET( 11, 24)   WET( 12, 23)   WET( 12, 24)   WET( 13, 23)   
    WET( 14, 22)   WET( 14, 23)   WET( 15, 21)   WET( 15, 22)   WET( 16, 21)   
    WET( 16, 22)   WET( 17, 20)   WET( 17, 21)   WET( 18, 19)   WET( 18, 20)   
    WET( 19, 18)   WET( 19, 19)   WET( 20, 17)   WET( 20, 18)   WET( 21, 15)   
    WET( 21, 16)   WET( 21, 17)   WET( 22, 14)   WET( 22, 15)   WET( 22, 16)   
    WET( 23, 12)   WET( 23, 13)   WET( 23, 14)   WET( 24, 10)   WET( 24, 11)   
    WET( 24, 12)   
     5 CALLS TO PCG ROUTINE FOR TIME STEP  10 IN STRESS PERIOD    3
    45 TOTAL ITERATIONS

 MAXIMUM HEAD CHANGE FOR EACH ITERATION (1 INDICATES THE FIRST INNER ITERATION):

    HEAD CHANGE    HEAD CHANGE    HEAD CHANGE    HEAD CHANGE    HEAD CHANGE 
   LAYER,ROW,COL  LAYER,ROW,COL  LAYER,ROW,COL  LAYER,ROW,COL  LAYER,ROW,COL
 ---------------------------------------------------------------------------
  1  0.4243      0  0.1121      0 -0.3837E-01  0 -0.2101E-01  0 -0.1003E-01
   (  8,  2,  7)  ( 14,  1, 30)  ( 14,  2, 32)  ( 14, 29,  1)  ( 14,  3, 28)
  0 -0.5305E-02  0 -0.3067E-02  0 -0.2834E-02  0  0.1720E-02  0 -0.1012E-02
   ( 14, 27,  2)  ( 14,  2, 36)  ( 14, 25, 25)  ( 11,  2, 31)  ( 14, 31, 31)
  0 -0.5478E-03  0  0.3642E-03  0  0.2076E-03  0 -0.9842E-04  1  0.3420    
   ( 14,  4,  4)  ( 10, 15, 29)  ( 10, 19, 28)  ( 14, 30, 21)  (  7,  4,  6)
  0  0.1352      0  0.5224E-01  0  0.2378E-01  0  0.1474E-01  0  0.1164E-01
   ( 13,  1,  7)  ( 14, 11, 29)  ( 14, 22, 16)  ( 14, 19, 27)  ( 14, 25, 25)
  0  0.6013E-02  0  0.3065E-02  0  0.1760E-02  0  0.8256E-03  0 -0.7964E-03
   ( 14, 32, 24)  ( 14, 32, 32)  ( 14,  1,  1)  ( 13,  2,  2)  ( 14, 29, 29)
  0  0.3277E-03  0  0.1831E-03  0  0.1572E-03  0  0.8132E-04  1 -0.1506E-01
   ( 13, 16, 16)  ( 13, 16, 15)  ( 13, 15, 15)  ( 13, 14, 15)  (  7,  1,  6)
  0  0.7147E-02  0  0.5211E-02  0 -0.1148E-02  0 -0.2200E-02  0 -0.4273E-03
   (  7,  4,  6)  (  6,  2,  2)  ( 14,  1,  1)  ( 14,  2,  2)  (  8,  2,  2)
  0  0.4047E-03  0 -0.1558E-03  0  0.1847E-03  0  0.5765E-04  1 -0.9226E-03
   ( 10,  5,  5)  ( 14, 33,  3)  (  8,  1,  1)  (  8,  1,  1)  (  7,  6,  1)
  0  0.4859E-03  0  0.2412E-03  0 -0.2636E-03  0 -0.5560E-04  1  0.2871E-04
   ( 14,  2,  2)  ( 14, 29, 29)  (  5,  2,  2)  ( 13,  2,  2)  ( 14,  3,  5)

 MAXIMUM RESIDUAL FOR EACH ITERATION (1 INDICATES THE FIRST INNER ITERATION):

    RESIDUAL       RESIDUAL       RESIDUAL       RESIDUAL       RESIDUAL    
   LAYER,ROW,COL  LAYER,ROW,COL  LAYER,ROW,COL  LAYER,ROW,COL  LAYER,ROW,COL
 ---------------------------------------------------------------------------
  1   4.699      0  -2.060      0  -1.550      0  0.6363      0  0.5552    
   (  9,  2,  7)  ( 13,  2,  7)  ( 13,  2,  7)  ( 14,  4, 10)  (  9,  2,  7)
  0  0.3039      0  0.1871      0 -0.1070      0 -0.6290E-01  0  0.5625E-01
   ( 14,  6, 24)  ( 14,  6, 24)  ( 10,  2, 24)  ( 10,  2, 24)  ( 14,  2,  7)
  0  0.2490E-01  0  0.1820E-01  0 -0.1192E-01  0 -0.5886E-02  1  -25.36    
   ( 14,  7,  2)  ( 14,  4, 11)  (  9,  2,  7)  ( 10, 11,  4)  (  7,  1,  7)
  0   5.918      0   3.445      0   1.623      0  0.8531      0 -0.5802    
   (  8,  4,  6)  (  8,  4,  6)  (  8,  1,  7)  (  8,  1,  7)  (  9,  4,  6)
  0 -0.3775      0 -0.2063      0 -0.1473      0 -0.1118      0 -0.7880E-01
   (  9,  4,  6)  (  9,  4,  6)  (  8,  1,  6)  (  8,  1,  6)  (  8,  1,  6)
  0 -0.5721E-01  0 -0.4328E-01  0 -0.2979E-01  0 -0.2089E-01  1  -4.495    
   (  8,  1,  6)  (  8,  1,  6)  (  8,  1,  6)  (  8,  1,  6)  (  7,  4,  6)
  0  -1.303      0 -0.6351      0 -0.4378      0  0.2817      0  0.2062    
   (  7,  4,  6)  (  7,  4,  6)  (  7,  4,  6)  (  8,  4,  6)  (  8,  4,  6)
  0  0.7435E-01  0  0.4814E-01  0  0.2741E-01  0  0.2012E-01  1  0.2750    
   (  8,  4,  6)  (  8,  4,  6)  (  8,  4,  6)  (  8,  4,  6)  (  7,  1,  6)
  0  0.1532      0  0.5878E-01  0  0.3052E-01  0  0.2327E-01  1  0.3108E-01
   (  7,  1,  6)  (  7,  1,  6)  (  7,  1,  6)  (  7,  1,  6)  (  7,  1,  6)



 NO OUTPUT CONTROL FOR STRESS PERIOD    3   TIME STEP   10
 
 SOLVING FOR HEAD 

 CELL CONVERSIONS FOR ITER.=  2  LAYER=  4  STEP= 11  PERIOD=   3   (ROW,COL)
    WET(  2,  2)   

 CELL CONVERSIONS FOR ITER.=  2  LAYER=  8  STEP= 11  PERIOD=   3   (ROW,COL)
    WET(  5, 11)   WET(  8,  9)   WET(  9,  8)   WET( 11,  5)   

 CELL CONVERSIONS FOR ITER.=  2  LAYER=  9  STEP= 11  PERIOD=   3   (ROW,COL)
    WET(  5, 26)   WET(  6, 26)   WET(  7, 26)   WET(  8, 25)   WET(  8, 26)   
    WET(  9, 25)   WET( 10, 25)   WET( 25,  8)   WET( 25,  9)   WET( 25, 10)   
    WET( 26,  5)   WET( 26,  6)   WET( 26,  7)   WET( 26,  8)   
     5 CALLS TO PCG ROUTINE FOR TIME STEP  11 IN STRESS PERIOD    3
    46 TOTAL ITERATIONS

 MAXIMUM HEAD CHANGE FOR EACH ITERATION (1 INDICATES THE FIRST INNER ITERATION):

    HEAD CHANGE    HEAD CHANGE    HEAD CHANGE    HEAD CHANGE    HEAD CHANGE 
   LAYER,ROW,COL  LAYER,ROW,COL  LAYER,ROW,COL  LAYER,ROW,COL  LAYER,ROW,COL
 ---------------------------------------------------------------------------
  1  0.4044      0 -0.8140E-01  0  0.2212E-01  0  0.1743E-01  0  0.7363E-02
   (  7,  7,  1)  ( 13, 12,  2)  ( 14,  7, 32)  ( 12,  2,  2)  ( 14,  2, 37)
  0 -0.5513E-02  0 -0.3863E-02  0 -0.2594E-02  0  0.1166E-02  0 -0.1243E-02
   ( 14, 25, 25)  ( 14, 31, 24)  ( 14, 30, 30)  ( 10, 32,  2)  ( 12,  2,  2)
  0  0.6117E-03  0  0.3527E-03  0  0.1517E-03  0 -0.1269E-03  0 -0.1006E-03
   ( 11, 23, 33)  ( 10, 26, 30)  ( 11, 22, 31)  ( 13,  2,  2)  ( 13,  2,  2)
  0 -0.3891E-04  1  0.7405      0  0.2343      0  0.4342E-01  0  0.3653E-01
   ( 14, 29, 29)  (  4,  2,  2)  (  4,  2,  2)  ( 14,  1,  3)  ( 14,  1,  3)
  0  0.1354E-01  0  0.7744E-02  0  0.4645E-02  0  0.2653E-02  0 -0.9715E-03
   ( 14,  1, 36)  ( 14, 34,  3)  ( 14, 29, 29)  ( 13,  3,  1)  ( 14, 36,  2)
  0 -0.8840E-03  0  0.3564E-03  0  0.2675E-03  0  0.1536E-03  0  0.8092E-04
   ( 12,  2, 32)  ( 14,  5, 34)  ( 14, 32,  2)  ( 14, 34, 14)  ( 14, 30, 16)
  1  0.3868E-01  0  0.2183E-01  0 -0.7131E-02  0  0.1372E-02  0  0.2822E-02
   (  4,  2,  2)  (  4,  2,  2)  ( 10,  3,  1)  ( 14, 32, 18)  ( 14,  1,  1)
  0 -0.5782E-03  0 -0.6852E-03  0 -0.1597E-03  0 -0.1732E-03  0 -0.8674E-04
   (  7,  2,  2)  (  6,  2,  2)  ( 14,  3, 33)  ( 14,  1,  1)  ( 14, 32, 32)
  1  0.1208E-02  0 -0.5352E-03  0  0.3329E-03  0  0.1553E-03  0  0.8344E-04
   (  4,  2,  2)  (  4,  2,  1)  (  4,  2,  2)  (  4,  2,  2)  ( 14,  2,  2)
  1  0.6694E-04
   ( 14,  1,  1)

 MAXIMUM RESIDUAL FOR EACH ITERATION (1 INDICATES THE FIRST INNER ITERATION):

    RESIDUAL       RESIDUAL       RESIDUAL       RESIDUAL       RESIDUAL    
   LAYER,ROW,COL  LAYER,ROW,COL  LAYER,ROW,COL  LAYER,ROW,COL  LAYER,ROW,COL
 ---------------------------------------------------------------------------
  1   6.095      0  -1.949      0  -1.360      0  0.6714      0  0.4519    
   ( 10,  2, 12)  ( 13,  2, 12)  ( 13,  2, 12)  (  7,  2,  2)  ( 10,  2, 12)
  0 -0.2804      0  0.1946      0  0.1150      0  0.9481E-01  0 -0.5041E-01
   ( 10,  2,  2)  (  9,  4,  6)  ( 14, 15, 21)  ( 13,  2,  2)  ( 10,  4,  6)
  0 -0.4337E-01  0  0.1638E-01  0  0.1413E-01  0  0.6169E-02  0 -0.5147E-02
   (  8,  2,  2)  ( 13,  4,  6)  ( 13,  4,  6)  ( 13, 11,  3)  (  9,  4,  6)
  0 -0.3440E-02  1  -66.27      0   16.95      0   7.633      0   2.333    
   (  9,  4,  6)  (  4,  2,  2)  (  5,  2,  2)  (  5,  2,  2)  (  5,  2,  2)
  0  -1.698      0  -1.149      0 -0.8188      0 -0.5679      0 -0.4379    
   (  7,  2,  2)  (  7,  2,  2)  (  5,  1,  2)  (  5,  1,  2)  (  5,  1,  2)
  0 -0.3130      0 -0.2307      0 -0.1628      0 -0.1091      0 -0.7674E-01
   (  5,  1,  2)  (  5,  1,  2)  (  5,  1,  2)  (  5,  1,  2)  (  5,  1,  2)
  1  -12.95      0  -5.081      0  -2.491      0  -1.925      0  0.6534    
   (  4,  2,  2)  (  4,  2,  2)  (  4,  2,  2)  (  4,  2,  2)  (  5,  2,  2)
  0  0.4440      0  0.2574      0  0.2110      0  0.1293      0  0.6930E-01
   (  5,  2,  2)  (  5,  2,  2)  (  5,  2,  2)  (  5,  2,  2)  (  5,  2,  2)
  1 -0.5526      0 -0.3369      0 -0.1559      0 -0.9669E-01  0 -0.6727E-01
   (  4,  2,  2)  (  4,  2,  2)  (  4,  2,  2)  (  4,  2,  2)  (  4,  2,  2)
  1 -0.7576E-01
   (  4,  2,  2)



 NO OUTPUT CONTROL FOR STRESS PERIOD    3   TIME STEP   11
 
 SOLVING FOR HEAD 

 CELL CONVERSIONS FOR ITER.=  2  LAYER=  5  STEP= 12  PERIOD=   3   (ROW,COL)
    WET(  1,  3)   WET(  3,  1)   

 CELL CONVERSIONS FOR ITER.=  2  LAYER=  6  STEP= 12  PERIOD=   3   (ROW,COL)
    WET(  3,  4)   WET(  4,  3)   

 CELL CONVERSIONS FOR ITER.=  2  LAYER=  7  STEP= 12  PERIOD=   3   (ROW,COL)
    WET(  3,  7)   WET(  5,  6)   WET(  6,  5)   WET(  7,  3)   

 CELL CONVERSIONS FOR ITER.=  2  LAYER=  8  STEP= 12  PERIOD=   3   (ROW,COL)
    WET(  1, 12)   WET(  2, 12)   WET(  3, 12)   WET(  7, 10)   WET( 10,  7)   
    WET( 12,  1)   WET( 12,  2)   WET( 12,  3)   

 CELL CONVERSIONS FOR ITER.=  2  LAYER=  9  STEP= 12  PERIOD=   3   (ROW,COL)
    WET(  1, 27)   WET(  1, 28)   WET(  2, 27)   WET(  3, 27)   WET(  4, 27)   
    WET(  5, 27)   WET(  6, 27)   WET(  9, 26)   WET( 11, 25)   WET( 12, 25)   
    WET( 13, 24)   WET( 14, 24)   WET( 15, 23)   WET( 16, 23)   WET( 17, 22)   
    WET( 18, 21)   WET( 19, 20)   WET( 19, 21)   WET( 20, 19)   WET( 20, 20)   
    WET( 21, 18)   WET( 21, 19)   WET( 22, 17)   WET( 23, 15)   WET( 23, 16)   
    WET( 24, 13)   WET( 24, 14)   WET( 25, 11)   WET( 25, 12)   WET( 26,  9)   
    WET( 27,  1)   WET( 27,  2)   WET( 27,  3)   WET( 27,  4)   WET( 27,  5)   
    WET( 27,  6)   WET( 28,  1)   
     7 CALLS TO PCG ROUTINE FOR TIME STEP  12 IN STRESS PERIOD    3
    59 TOTAL ITERATIONS

 MAXIMUM HEAD CHANGE FOR EACH ITERATION (1 INDICATES THE FIRST INNER ITERATION):

    HEAD CHANGE    HEAD CHANGE    HEAD CHANGE    HEAD CHANGE    HEAD CHANGE 
   LAYER,ROW,COL  LAYER,ROW,COL  LAYER,ROW,COL  LAYER,ROW,COL  LAYER,ROW,COL
 ---------------------------------------------------------------------------
  1  0.5397      0 -0.1028      0 -0.2226E-01  0 -0.1339E-01  0  0.8218E-02
   (  4,  2,  2)  ( 10,  2,  2)  ( 13,  3,  1)  ( 14, 26,  8)  ( 10,  1,  3)
  0 -0.6204E-02  0 -0.4144E-02  0  0.2337E-02  0  0.1325E-02  0  0.1146E-02
   ( 14, 34,  3)  ( 14, 29, 29)  ( 14, 32, 32)  ( 14, 36,  2)  ( 10, 33,  3)
  0  0.4107E-03  0 -0.2763E-03  0 -0.1716E-03  0 -0.1296E-03  0 -0.4618E-04
   ( 10, 12, 29)  ( 14, 12,  3)  ( 11,  3,  1)  ( 13,  2,  2)  ( 14, 36, 36)
  1 -0.3315      0  0.1225      0  0.7247E-01  0  0.3983E-01  0  0.1850E-01
   ( 10,  1, 27)  ( 13,  2, 12)  ( 14,  1, 33)  ( 14, 31,  1)  ( 14,  7, 31)
  0  0.8784E-02  0  0.5636E-02  0  0.3215E-02  0  0.1622E-02  0 -0.7613E-03
   ( 14, 28, 28)  ( 14, 24, 31)  ( 14, 31, 31)  ( 14,  1,  1)  ( 14, 20, 35)
  0 -0.7494E-03  0  0.2974E-03  0  0.1967E-03  0  0.1071E-03  0  0.8976E-04
   ( 14, 25, 35)  ( 13,  5,  5)  ( 14, 32, 11)  ( 14, 36, 18)  ( 14, 18, 31)
  1  0.2872E-01  0  0.1745E-01  0 -0.8122E-02  0  0.1844E-02  0  0.2556E-02
   (  5,  1,  3)  ( 14,  2,  2)  (  4,  2,  2)  ( 14,  1,  1)  ( 10,  2,  2)
  0 -0.1037E-02  0 -0.6372E-03  0 -0.1278E-03  0 -0.1509E-03  0 -0.8578E-04
   (  6,  1,  1)  ( 14,  2,  2)  ( 14,  2,  2)  (  5,  2,  1)  ( 14,  1,  1)
  1 -0.6441E-02  0 -0.4725E-02  0  0.8962E-03  0  0.1302E-02  0  0.6695E-03
   (  5,  2,  1)  (  5,  1,  2)  ( 14, 29, 29)  ( 14,  1,  1)  ( 14,  1,  1)
  0  0.5782E-03  0 -0.1963E-03  0 -0.2275E-03  0 -0.4200E-04  1 -0.1163E-02
   ( 14,  1,  1)  (  6,  1,  1)  (  6,  1,  1)  ( 14,  2,  2)  (  5,  2,  1)
  0 -0.8399E-03  0  0.1364E-03  0  0.2429E-03  0  0.1210E-03  0  0.1253E-03
   (  5,  2,  1)  ( 14,  2,  1)  ( 14,  1,  1)  ( 14,  1,  1)  ( 14,  1,  1)
  0 -0.3267E-04  1 -0.2100E-03  0 -0.9398E-04  1  0.4356E-04
   (  6,  1,  1)  (  5,  1,  2)  (  5,  2,  1)  ( 14, 29, 29)

 MAXIMUM RESIDUAL FOR EACH ITERATION (1 INDICATES THE FIRST INNER ITERATION):

    RESIDUAL       RESIDUAL       RESIDUAL       RESIDUAL       RESIDUAL    
   LAYER,ROW,COL  LAYER,ROW,COL  LAYER,ROW,COL  LAYER,ROW,COL  LAYER,ROW,COL
 ---------------------------------------------------------------------------
  1   13.86      0  -3.361      0  -2.220      0   1.588      0   1.082    
   (  7,  2,  2)  ( 13,  2,  2)  ( 13,  2,  2)  (  5,  2,  2)  (  5,  2,  2)
  0  0.6188      0  0.2468      0 -0.1603      0 -0.1447      0 -0.1141    
   (  5,  2,  2)  (  5,  2,  2)  (  8,  2,  2)  (  7,  2,  2)  (  7,  2,  2)
  0 -0.7285E-01  0  0.2901E-01  0  0.1747E-01  0 -0.5826E-02  0 -0.6610E-02
   (  7,  2,  2)  ( 12,  2,  2)  ( 10,  2,  2)  (  6,  2,  2)  ( 13,  2,  2)
  1  -23.51      0   5.423      0   3.189      0   1.406      0  0.8647    
   (  8,  1, 12)  (  8,  3,  7)  (  8,  3,  7)  (  8,  3,  7)  (  6,  1,  3)
  0 -0.6229      0 -0.4100      0 -0.2723      0 -0.1813      0 -0.1428    
   (  9,  3,  7)  ( 10,  7, 10)  ( 10,  7, 10)  (  7,  3,  3)  (  7,  3,  3)
  0 -0.1065      0 -0.7098E-01  0 -0.4877E-01  0 -0.3424E-01  0 -0.2443E-01
   (  7,  3,  3)  (  7,  3,  3)  (  7,  3,  3)  (  7,  3,  3)  (  7,  3,  3)
  1  -8.223      0  -2.594      0  -1.310      0 -0.9851      0 -0.4135    
   (  5,  1,  3)  (  5,  1,  3)  (  5,  1,  3)  (  5,  1,  3)  (  5,  1,  3)
  0 -0.2001      0 -0.9479E-01  0 -0.7299E-01  0  0.4489E-01  0  0.3219E-01
   (  5,  1,  3)  (  5,  1,  3)  (  5,  1,  3)  (  6,  1,  3)  (  6,  1,  3)
  1  -1.955      0 -0.6880      0 -0.4562      0 -0.2733      0 -0.1819    
   (  5,  1,  3)  (  5,  1,  3)  (  5,  3,  1)  (  5,  3,  1)  (  5,  3,  1)
  0 -0.7105E-01  0 -0.4052E-01  0  0.2171E-01  0  0.1738E-01  1 -0.3660    
   (  5,  3,  1)  (  5,  3,  1)  (  6,  1,  3)  (  6,  1,  3)  (  5,  3,  1)
  0 -0.1443      0 -0.8795E-01  0 -0.5158E-01  0 -0.3590E-01  0 -0.1360E-01
   (  5,  3,  1)  (  5,  3,  1)  (  5,  3,  1)  (  5,  3,  1)  (  5,  3,  1)
  0  0.7782E-02  1 -0.7203E-01  0 -0.5166E-01  1 -0.5687E-01
   (  6,  1,  1)  (  5,  3,  1)  (  5,  3,  1)  (  5,  3,  1)



 NO OUTPUT CONTROL FOR STRESS PERIOD    3   TIME STEP   12
 
 SOLVING FOR HEAD 

 CELL CONVERSIONS FOR ITER.=  2  LAYER=  8  STEP= 13  PERIOD=   3   (ROW,COL)
    WET(  4, 12)   WET(  6, 11)   WET(  8, 10)   WET(  9,  9)   WET( 10,  8)   
    WET( 11,  6)   WET( 12,  4)   

 CELL CONVERSIONS FOR ITER.=  2  LAYER=  9  STEP= 13  PERIOD=   3   (ROW,COL)
    WET(  7, 27)   WET( 10, 26)   WET( 26, 10)   WET( 27,  7)   
     5 CALLS TO PCG ROUTINE FOR TIME STEP  13 IN STRESS PERIOD    3
    41 TOTAL ITERATIONS

 MAXIMUM HEAD CHANGE FOR EACH ITERATION (1 INDICATES THE FIRST INNER ITERATION):

    HEAD CHANGE    HEAD CHANGE    HEAD CHANGE    HEAD CHANGE    HEAD CHANGE 
   LAYER,ROW,COL  LAYER,ROW,COL  LAYER,ROW,COL  LAYER,ROW,COL  LAYER,ROW,COL
 ---------------------------------------------------------------------------
  1  0.3586      0  0.8807E-01  0 -0.4141E-01  0 -0.1801E-01  0 -0.1002E-01
   (  8, 10,  7)  ( 14, 33,  1)  ( 14, 32,  1)  ( 14, 30,  1)  ( 14, 30,  7)
  0 -0.5314E-02  0 -0.3324E-02  0 -0.2352E-02  0  0.1184E-02  0  0.8361E-03
   ( 14, 32, 19)  ( 14, 31, 24)  ( 14, 28, 28)  ( 10, 32,  2)  ( 12, 34,  1)
  0  0.6807E-03  0  0.2803E-03  0 -0.2924E-03  0 -0.1299E-03  0 -0.6959E-04
   ( 14, 24, 34)  ( 10, 28, 32)  ( 11,  2,  2)  ( 10,  2,  2)  ( 14, 35, 22)
  1  0.2388      0  0.1238      0  0.2423E-01  0  0.1274E-01  0  0.5271E-02
   (  8, 11,  6)  ( 14,  2,  2)  ( 14,  1,  1)  ( 14,  1,  3)  ( 14, 37,  1)
  0  0.3815E-02  0  0.2393E-02  0 -0.1359E-02  0 -0.7674E-03  0 -0.4383E-03
   (  8,  2,  2)  ( 14, 29, 29)  ( 13,  2,  2)  ( 14,  2,  2)  ( 14,  3,  3)
  0 -0.2518E-03  0 -0.1241E-03  0  0.7702E-04  1  0.6275E-02  0 -0.2779E-02
   ( 14,  1,  2)  ( 14,  1,  1)  ( 14,  1,  5)  (  8, 11,  6)  ( 14,  1,  1)
  0  0.9792E-03  0 -0.1079E-02  0 -0.2344E-03  0  0.2902E-03  0 -0.1225E-03
   ( 14, 19, 33)  ( 13,  2,  2)  ( 14, 27, 36)  (  9,  2,  2)  ( 14, 36, 36)
  0 -0.9916E-04  1 -0.3344E-03  0 -0.1714E-03  0 -0.1740E-03  0  0.6353E-04
   ( 13,  2,  2)  (  5,  1,  2)  (  5,  1,  2)  (  5,  1,  2)  ( 14, 33, 24)
  1  0.4235E-04
   (  5,  1,  3)

 MAXIMUM RESIDUAL FOR EACH ITERATION (1 INDICATES THE FIRST INNER ITERATION):

    RESIDUAL       RESIDUAL       RESIDUAL       RESIDUAL       RESIDUAL    
   LAYER,ROW,COL  LAYER,ROW,COL  LAYER,ROW,COL  LAYER,ROW,COL  LAYER,ROW,COL
 ---------------------------------------------------------------------------
  1   5.647      0  -1.693      0  -1.350      0  0.4836      0  0.4380    
   ( 11,  7, 11)  ( 13,  4,  7)  ( 13,  7, 11)  ( 14,  2, 11)  (  9,  4,  7)
  0  0.2485      0  0.1715      0  0.1063      0 -0.6698E-01  0  0.4253E-01
   ( 14, 22, 16)  ( 14, 21, 17)  ( 14,  6, 11)  (  7,  2,  2)  ( 14,  4,  7)
  0  0.2617E-01  0  0.2308E-01  0 -0.1083E-01  0 -0.7342E-02  0 -0.4021E-02
   ( 14,  4,  7)  (  9,  2,  2)  (  9,  4,  7)  ( 13,  2,  2)  (  9,  3,  7)
  1  -32.96      0  -4.539      0   1.724      0 -0.9741      0 -0.5455    
   (  8,  6, 11)  (  8,  6, 11)  (  9,  6, 11)  (  7,  2,  2)  (  7,  2,  2)
  0 -0.4073      0 -0.3321      0 -0.2461      0 -0.1783      0 -0.1228    
   (  9,  8,  9)  (  9,  8,  9)  ( 10,  6, 11)  (  9,  8,  9)  (  9,  8,  9)
  0 -0.8626E-01  0 -0.6256E-01  0 -0.4114E-01  1  -1.611      0 -0.6295    
   (  9,  8,  9)  (  9,  8,  9)  (  9,  8,  9)  (  8,  6, 11)  (  8,  6, 11)
  0 -0.3538      0 -0.1734      0 -0.1233      0  0.7615E-01  0  0.5208E-01
   (  8,  6, 11)  (  8,  6, 11)  (  8,  6, 11)  (  9,  6, 11)  (  9,  6, 11)
  0  0.3008E-01  1 -0.1451      0 -0.1132      0 -0.4515E-01  0 -0.2401E-01
   (  9,  6, 11)  (  5,  3,  1)  (  5,  3,  1)  (  5,  3,  1)  (  5,  3,  1)
  1 -0.4244E-01
   (  5,  1,  3)



 NO OUTPUT CONTROL FOR STRESS PERIOD    3   TIME STEP   13
 
 SOLVING FOR HEAD 

 CELL CONVERSIONS FOR ITER.=  2  LAYER=  6  STEP= 14  PERIOD=   3   (ROW,COL)
    WET(  1,  5)   WET(  5,  1)   

 CELL CONVERSIONS FOR ITER.=  2  LAYER=  7  STEP= 14  PERIOD=   3   (ROW,COL)
    WET(  1,  8)   WET(  4,  7)   WET(  7,  4)   WET(  8,  1)   

 CELL CONVERSIONS FOR ITER.=  2  LAYER=  8  STEP= 14  PERIOD=   3   (ROW,COL)
    WET(  5, 12)   WET(  7, 11)   WET( 11,  7)   WET( 12,  5)   

 CELL CONVERSIONS FOR ITER.=  2  LAYER=  9  STEP= 14  PERIOD=   3   (ROW,COL)
    WET(  1, 29)   WET(  2, 28)   WET(  2, 29)   WET(  3, 28)   WET(  3, 29)   
    WET(  4, 28)   WET(  4, 29)   WET(  5, 28)   WET(  6, 28)   WET(  7, 28)   
    WET(  8, 27)   WET(  8, 28)   WET(  9, 27)   WET(  9, 28)   WET( 10, 27)   
    WET( 11, 26)   WET( 11, 27)   WET( 12, 26)   WET( 12, 27)   WET( 13, 25)   
    WET( 13, 26)   WET( 14, 25)   WET( 14, 26)   WET( 15, 24)   WET( 15, 25)   
    WET( 15, 26)   WET( 16, 24)   WET( 16, 25)   WET( 17, 23)   WET( 17, 24)   
    WET( 18, 22)   WET( 18, 23)   WET( 18, 24)   WET( 19, 22)   WET( 19, 23)   
    WET( 20, 21)   WET( 20, 22)   WET( 21, 20)   WET( 21, 21)   WET( 22, 18)   
    WET( 22, 19)   WET( 22, 20)   WET( 23, 17)   WET( 23, 18)   WET( 23, 19)   
    WET( 24, 15)   WET( 24, 16)   WET( 24, 17)   WET( 24, 18)   WET( 25, 13)   
    WET( 25, 14)   WET( 25, 15)   WET( 25, 16)   WET( 26, 11)   WET( 26, 12)   
    WET( 26, 13)   WET( 26, 14)   WET( 26, 15)   WET( 27,  8)   WET( 27,  9)   
    WET( 27, 10)   WET( 27, 11)   WET( 27, 12)   WET( 28,  2)   WET( 28,  3)   
    WET( 28,  4)   WET( 28,  5)   WET( 28,  6)   WET( 28,  7)   WET( 28,  8)   
    WET( 28,  9)   WET( 29,  1)   WET( 29,  2)   WET( 29,  3)   WET( 29,  4)   
     5 CALLS TO PCG ROUTINE FOR TIME STEP  14 IN STRESS PERIOD    3
    44 TOTAL ITERATIONS

 MAXIMUM HEAD CHANGE FOR EACH ITERATION (1 INDICATES THE FIRST INNER ITERATION):

    HEAD CHANGE    HEAD CHANGE    HEAD CHANGE    HEAD CHANGE    HEAD CHANGE 
   LAYER,ROW,COL  LAYER,ROW,COL  LAYER,ROW,COL  LAYER,ROW,COL  LAYER,ROW,COL
 ---------------------------------------------------------------------------
  1  0.3993      0 -0.8909E-01  0 -0.1981E-01  0 -0.1104E-01  0 -0.5788E-02
   (  8,  2,  8)  ( 13,  8,  2)  ( 14,  1, 34)  ( 14,  5, 33)  ( 14, 34, 12)
  0 -0.4624E-02  0 -0.2160E-02  0 -0.1203E-02  0  0.1334E-02  0  0.5408E-03
   ( 14, 34,  2)  ( 14, 13,  2)  ( 14,  1, 13)  ( 14, 29, 29)  ( 13,  2, 13)
  0  0.3619E-03  0 -0.1967E-03  0 -0.1279E-03  0 -0.6854E-04  1 -0.3792    
   ( 10, 21, 32)  ( 14,  5,  4)  ( 14, 32,  9)  ( 14, 30, 12)  ( 10, 25, 15)
  0 -0.1730      0  0.1065      0  0.4739E-01  0  0.2134E-01  0  0.1123E-01
   ( 14, 33,  1)  ( 14,  1, 33)  ( 14,  6, 34)  ( 14, 33, 11)  ( 14, 15, 31)
  0  0.5912E-02  0  0.2765E-02  0 -0.1823E-02  0 -0.1562E-02  0 -0.8254E-03
   ( 14, 29, 29)  ( 14, 26, 31)  ( 13, 12, 35)  ( 14, 28, 28)  ( 14, 25, 34)
  0 -0.5196E-03  0  0.2946E-03  0  0.1623E-03  0  0.1075E-03  0  0.4361E-04
   ( 14, 33, 33)  ( 14, 33, 19)  ( 14, 22, 31)  ( 14, 32, 19)  ( 14, 30, 22)
  1 -0.1064E-01  0  0.7082E-02  0  0.1514E-02  0 -0.6107E-03  0 -0.7490E-03
   (  6,  4,  1)  ( 14,  1,  4)  (  7,  5,  2)  ( 14, 33, 21)  ( 13,  2,  2)
  0 -0.2953E-03  0  0.2837E-03  0 -0.1384E-03  0  0.5702E-04  1 -0.1125E-02
   ( 14, 19, 34)  (  7,  2,  2)  ( 14, 31, 31)  ( 14,  3,  3)  (  6,  1,  4)
  0 -0.4205E-03  0  0.2651E-03  0 -0.9581E-04  1 -0.4800E-04
   (  6,  1,  4)  ( 14,  1,  4)  ( 14,  1,  1)  ( 14, 32, 32)

 MAXIMUM RESIDUAL FOR EACH ITERATION (1 INDICATES THE FIRST INNER ITERATION):

    RESIDUAL       RESIDUAL       RESIDUAL       RESIDUAL       RESIDUAL    
   LAYER,ROW,COL  LAYER,ROW,COL  LAYER,ROW,COL  LAYER,ROW,COL  LAYER,ROW,COL
 ---------------------------------------------------------------------------
  1   6.695      0   2.073      0 -0.7707      0 -0.6279      0 -0.3826    
   ( 10,  2,  8)  ( 11, 10, 26)  ( 13,  2,  8)  ( 13,  6, 11)  ( 13, 10, 26)
  0 -0.2223      0  0.1260      0 -0.6480E-01  0  0.5459E-01  0  0.2983E-01
   ( 13, 10, 26)  ( 10,  6, 11)  ( 12,  2, 13)  ( 14,  2,  8)  ( 14,  2,  8)
  0 -0.2270E-01  0 -0.1338E-01  0 -0.8430E-02  0  0.5104E-02  1  -19.59    
   (  9,  2,  8)  (  9,  2,  8)  ( 10, 13,  2)  ( 13, 11,  6)  (  7,  4,  7)
  0   6.604      0   3.884      0   1.502      0  0.5635      0 -0.5086    
   (  8,  4,  7)  (  8,  4,  7)  (  8,  4,  7)  (  8,  4,  7)  (  9,  4,  7)
  0 -0.3230      0  0.1790      0 -0.1324      0  0.7729E-01  0 -0.5260E-01
   (  9,  4,  7)  ( 11, 10, 26)  (  7,  2,  2)  ( 11, 17, 22)  ( 10,  1, 28)
  0 -0.3746E-01  0 -0.2547E-01  0 -0.1796E-01  0 -0.1228E-01  0 -0.8323E-02
   ( 10,  1, 28)  ( 10,  1, 28)  ( 10,  1, 28)  ( 10,  1, 28)  ( 10,  1, 28)
  1   3.411      0  0.8273      0 -0.4477      0 -0.3265      0 -0.1888    
   (  6,  1,  4)  (  6,  1,  4)  (  6,  1,  5)  (  6,  1,  5)  (  8,  4,  1)
  0 -0.1049      0  0.4074E-01  0  0.2770E-01  0  0.1820E-01  1  0.3605    
   (  8,  4,  1)  (  8,  4,  7)  (  8,  4,  7)  (  8,  4,  7)  (  6,  1,  4)
  0  0.1831      0  0.6660E-01  0  0.4474E-01  1  0.7376E-01
   (  6,  1,  4)  (  6,  1,  4)  (  6,  1,  4)  (  6,  1,  4)



 NO OUTPUT CONTROL FOR STRESS PERIOD    3   TIME STEP   14
 
 SOLVING FOR HEAD 

 CELL CONVERSIONS FOR ITER.=  2  LAYER=  7  STEP= 15  PERIOD=   3   (ROW,COL)
    WET(  2,  8)   WET(  8,  2)   

 CELL CONVERSIONS FOR ITER.=  2  LAYER=  8  STEP= 15  PERIOD=   3   (ROW,COL)
    WET(  1, 13)   WET(  2, 13)   WET(  3, 13)   WET( 13,  1)   WET( 13,  2)   
    WET( 13,  3)   
     5 CALLS TO PCG ROUTINE FOR TIME STEP  15 IN STRESS PERIOD    3
    39 TOTAL ITERATIONS

 MAXIMUM HEAD CHANGE FOR EACH ITERATION (1 INDICATES THE FIRST INNER ITERATION):

    HEAD CHANGE    HEAD CHANGE    HEAD CHANGE    HEAD CHANGE    HEAD CHANGE 
   LAYER,ROW,COL  LAYER,ROW,COL  LAYER,ROW,COL  LAYER,ROW,COL  LAYER,ROW,COL
 ---------------------------------------------------------------------------
  1  0.3049      0  0.1104      0 -0.5299E-01  0  0.2085E-01  0 -0.1124E-01
   (  7,  7,  4)  ( 14, 33,  1)  ( 14, 34,  2)  ( 13,  2,  5)  ( 14, 10, 32)
  0 -0.5498E-02  0 -0.3166E-02  0 -0.2470E-02  0  0.1519E-02  0  0.7764E-03
   ( 14,  9, 36)  ( 14, 25, 31)  ( 14, 29, 29)  ( 14, 30, 30)  ( 10, 34, 18)
  0  0.5870E-03  0  0.2648E-03  0 -0.1934E-03  0 -0.1209E-03  0 -0.7899E-04
   ( 11, 33, 22)  ( 10, 32, 31)  ( 14, 35, 35)  ( 14, 32, 23)  ( 14, 22, 35)
  1 -0.2533      0  0.1082      0  0.3524E-01  0  0.9638E-02  0  0.5623E-02
   (  9, 13,  1)  (  8,  1, 13)  ( 13, 13,  1)  ( 14,  1, 14)  ( 14,  1, 14)
  0  0.2365E-02  0  0.7790E-03  0 -0.9230E-03  0 -0.2325E-03  0  0.2928E-03
   ( 13, 15,  1)  ( 14,  1, 16)  ( 14,  3,  3)  ( 14, 36, 36)  (  9,  6,  6)
  0 -0.1604E-03  0  0.9445E-04  1  0.6683E-02  0  0.3135E-02  0 -0.1298E-02
   ( 14, 29, 29)  ( 14,  9,  9)  (  7,  8,  2)  (  7,  8,  2)  ( 14, 32, 32)
  0 -0.8913E-03  0 -0.2896E-03  0  0.2612E-03  0 -0.1436E-03  0 -0.1387E-03
   ( 13,  2,  2)  ( 14, 27, 27)  (  8,  2,  2)  ( 14, 32, 21)  ( 13,  2,  2)
  0 -0.4821E-04  1 -0.3043E-03  0 -0.9994E-04  1  0.8065E-04
   ( 14, 27, 36)  (  7,  7,  2)  ( 14, 26, 35)  ( 14, 26, 35)

 MAXIMUM RESIDUAL FOR EACH ITERATION (1 INDICATES THE FIRST INNER ITERATION):

    RESIDUAL       RESIDUAL       RESIDUAL       RESIDUAL       RESIDUAL    
   LAYER,ROW,COL  LAYER,ROW,COL  LAYER,ROW,COL  LAYER,ROW,COL  LAYER,ROW,COL
 ---------------------------------------------------------------------------
  1   4.633      0  -2.642      0  -1.240      0  0.7552      0  0.4175    
   (  9,  4,  7)  ( 13,  2,  5)  ( 13,  2,  5)  (  8,  2,  5)  (  8,  2,  5)
  0  0.2788      0  0.1491      0  0.8065E-01  0  0.5848E-01  0  0.3598E-01
   (  9,  4,  7)  (  9,  4,  7)  ( 14, 23, 17)  ( 14, 23, 17)  ( 14, 19, 21)
  0  0.2463E-01  0  0.1593E-01  0  0.8875E-02  0  0.5539E-02  0 -0.4833E-02
   ( 14, 21, 19)  ( 14,  4,  7)  ( 14, 20, 20)  ( 14,  2,  5)  (  9,  4,  7)
  1  -26.96      0  -3.112      0 -0.9748      0 -0.5844      0 -0.4891    
   (  8,  1, 13)  (  8,  1, 13)  (  8,  1, 13)  (  9,  2,  8)  (  9,  2,  8)
  0 -0.2774      0 -0.1895      0 -0.1347      0 -0.1040      0 -0.7043E-01
   (  9,  2,  8)  (  9,  2,  8)  (  9,  1, 12)  (  9,  1, 12)  (  9,  1, 12)
  0 -0.5145E-01  0 -0.3151E-01  1  -2.076      0 -0.6496      0 -0.3887    
   (  9,  1, 12)  (  9,  1, 12)  (  7,  2,  8)  (  7,  2,  8)  (  7,  2,  8)
  0 -0.2063      0 -0.1569      0  0.9967E-01  0  0.5756E-01  0  0.2553E-01
   (  7,  2,  8)  (  7,  2,  8)  (  8,  2,  8)  (  8,  2,  8)  (  8,  2,  8)
  0  0.1603E-01  1  0.1137      0  0.8149E-01  1  0.7807E-01
   (  8,  2,  8)  (  7,  2,  7)  (  7,  2,  7)  (  7,  7,  2)



 NO OUTPUT CONTROL FOR STRESS PERIOD    3   TIME STEP   15
 
 SOLVING FOR HEAD 

 CELL CONVERSIONS FOR ITER.=  2  LAYER=  5  STEP= 16  PERIOD=   3   (ROW,COL)
    WET(  2,  3)   WET(  3,  2)   

 CELL CONVERSIONS FOR ITER.=  2  LAYER=  6  STEP= 16  PERIOD=   3   (ROW,COL)
    WET(  2,  5)   WET(  5,  2)   

 CELL CONVERSIONS FOR ITER.=  2  LAYER=  7  STEP= 16  PERIOD=   3   (ROW,COL)
    WET(  3,  8)   WET(  5,  7)   WET(  6,  6)   WET(  7,  5)   WET(  8,  3)   

 CELL CONVERSIONS FOR ITER.=  2  LAYER=  8  STEP= 16  PERIOD=   3   (ROW,COL)
    WET(  4, 13)   WET(  6, 12)   WET(  8, 11)   WET(  9, 10)   WET( 10,  9)   
    WET( 11,  8)   WET( 12,  6)   WET( 13,  4)   

 CELL CONVERSIONS FOR ITER.=  2  LAYER=  9  STEP= 16  PERIOD=   3   (ROW,COL)
    WET(  5, 29)   WET(  6, 29)   WET( 29,  5)   WET( 29,  6)   
     7 CALLS TO PCG ROUTINE FOR TIME STEP  16 IN STRESS PERIOD    3
    53 TOTAL ITERATIONS

 MAXIMUM HEAD CHANGE FOR EACH ITERATION (1 INDICATES THE FIRST INNER ITERATION):

    HEAD CHANGE    HEAD CHANGE    HEAD CHANGE    HEAD CHANGE    HEAD CHANGE 
   LAYER,ROW,COL  LAYER,ROW,COL  LAYER,ROW,COL  LAYER,ROW,COL  LAYER,ROW,COL
 ---------------------------------------------------------------------------
  1  0.3320      0 -0.4492E-01  0 -0.2483E-01  0 -0.1016E-01  0 -0.5539E-02
   (  8,  1, 13)  ( 13, 13,  5)  ( 14, 34,  1)  ( 14, 34,  5)  ( 14, 33, 10)
  0 -0.2931E-02  0 -0.1505E-02  0  0.9486E-03  0  0.7389E-03  0  0.6770E-03
   ( 14, 18, 33)  ( 14, 38,  2)  ( 10, 22, 33)  ( 10, 25, 31)  ( 10, 29, 29)
  0 -0.3652E-03  0 -0.1760E-03  0 -0.1163E-03  0 -0.7841E-04  1 -0.3413    
   ( 14, 33, 33)  ( 14,  5,  5)  ( 14, 21, 34)  ( 14, 15, 33)  (  5,  2,  2)
  0  0.1811      0  0.3359E-01  0  0.1886E-01  0  0.7451E-02  0  0.8528E-02
   ( 12,  2,  2)  ( 14, 35,  5)  ( 14,  3,  1)  ( 14, 32,  8)  (  5,  2,  2)
  0  0.2477E-02  0  0.1646E-02  0 -0.1184E-02  0  0.5805E-03  0  0.3076E-03
   (  5,  2,  2)  (  9,  5,  2)  ( 14, 32, 32)  (  5,  2,  2)  ( 14,  7,  4)
  0  0.1796E-03  0  0.9665E-04  1 -0.3536E-01  0  0.2138E-01  0 -0.6373E-02
   ( 14, 34,  2)  ( 14,  1, 10)  (  5,  2,  2)  ( 13,  2,  2)  (  5,  2,  2)
  0 -0.1770E-02  0  0.3242E-02  0  0.7135E-03  0 -0.7045E-03  0 -0.2885E-03
   ( 14, 24, 33)  (  7,  2,  2)  (  7,  2,  2)  ( 14,  2,  2)  ( 14, 31, 31)
  0 -0.1628E-03  0  0.1099E-03  0  0.8214E-04  1 -0.7434E-02  0  0.3404E-02
   ( 14,  4,  1)  ( 14, 17, 36)  ( 14,  1,  1)  (  5,  2,  2)  ( 13,  2,  2)
  0 -0.6720E-03  0  0.7091E-03  0  0.5200E-03  0  0.2542E-03  0 -0.9013E-04
   (  5,  2,  2)  ( 14,  1,  3)  (  7,  2,  2)  (  7,  2,  2)  (  7,  1,  1)
  1 -0.1314E-02  0 -0.4361E-03  0  0.3656E-03  0  0.9658E-04  1 -0.1156E-03
   (  5,  2,  2)  (  5,  2,  2)  ( 13,  2,  2)  ( 14,  3,  1)  (  5,  2,  2)
  0 -0.1377E-03  0  0.8892E-04  1 -0.4097E-04
   (  5,  2,  2)  (  5,  3,  2)  ( 14, 31, 31)

 MAXIMUM RESIDUAL FOR EACH ITERATION (1 INDICATES THE FIRST INNER ITERATION):

    RESIDUAL       RESIDUAL       RESIDUAL       RESIDUAL       RESIDUAL    
   LAYER,ROW,COL  LAYER,ROW,COL  LAYER,ROW,COL  LAYER,ROW,COL  LAYER,ROW,COL
 ---------------------------------------------------------------------------
  1   4.245      0 -0.9341      0 -0.7378      0  0.4925      0  0.2813    
   ( 10,  2, 13)  ( 13,  5, 13)  ( 13,  5, 13)  ( 14,  2, 12)  ( 14,  2, 12)
  0 -0.1345      0 -0.1086      0 -0.6425E-01  0  0.3256E-01  0  0.2774E-01
   (  9,  1, 14)  (  9,  1, 14)  (  9,  1, 14)  ( 14, 14,  1)  ( 14,  3,  8)
  0  0.1408E-01  0 -0.8760E-02  0 -0.6796E-02  0 -0.3594E-02  1  -21.41    
   ( 14,  5, 13)  ( 10, 13,  1)  ( 13,  2, 12)  (  9,  8,  2)  (  8,  6, 12)
  0   4.469      0   2.772      0  -1.801      0  -1.331      0 -0.6811    
   ( 13,  2,  2)  ( 13,  2,  2)  (  6,  2,  2)  (  6,  2,  2)  (  6,  2,  2)
  0 -0.4531      0 -0.3203      0 -0.2361      0 -0.1498      0 -0.9942E-01
   (  6,  2,  2)  (  9,  9,  9)  (  9,  9,  9)  (  9,  9,  9)  (  9,  9,  9)
  0 -0.6736E-01  0 -0.4579E-01  1   11.16      0   3.586      0   1.659    
   (  9,  9,  9)  (  9,  9,  9)  (  5,  2,  2)  (  5,  2,  2)  (  5,  2,  2)
  0  -1.371      0 -0.5247      0 -0.2716      0 -0.1317      0 -0.1019    
   (  7,  2,  2)  (  7,  2,  2)  (  5,  2,  3)  (  5,  2,  3)  (  5,  2,  3)
  0  0.6703E-01  0  0.4164E-01  0  0.1691E-01  1   2.331      0  0.7818    
   (  9,  2,  2)  (  8,  2,  2)  (  8,  2,  2)  (  5,  2,  2)  (  5,  2,  2)
  0  0.5071      0  0.2907      0 -0.1237      0 -0.5414E-01  0 -0.3493E-01
   (  5,  2,  2)  (  5,  2,  2)  (  7,  2,  2)  (  5,  2,  3)  (  5,  2,  3)
  1  0.4392      0  0.2768      0  0.1214      0  0.7775E-01  1  0.1461    
   (  5,  2,  2)  (  5,  2,  2)  (  5,  2,  2)  (  5,  2,  2)  (  5,  2,  2)
  0  0.9328E-01  0  0.3612E-01  1  0.5377E-01
   (  5,  2,  2)  (  5,  2,  2)  (  5,  2,  2)



 NO OUTPUT CONTROL FOR STRESS PERIOD    3   TIME STEP   16
 
 SOLVING FOR HEAD 

 CELL CONVERSIONS FOR ITER.=  2  LAYER=  8  STEP= 17  PERIOD=   3   (ROW,COL)
    WET(  5, 13)   WET(  7, 12)   WET( 12,  7)   WET( 13,  5)   

 CELL CONVERSIONS FOR ITER.=  2  LAYER=  9  STEP= 17  PERIOD=   3   (ROW,COL)
    WET(  1, 30)   WET(  2, 30)   WET(  3, 30)   WET(  4, 30)   WET(  5, 30)   
    WET(  7, 29)   WET(  8, 29)   WET(  9, 29)   WET( 10, 28)   WET( 10, 29)   
    WET( 11, 28)   WET( 11, 29)   WET( 12, 28)   WET( 13, 27)   WET( 13, 28)   
    WET( 14, 27)   WET( 15, 27)   WET( 16, 26)   WET( 17, 25)   WET( 17, 26)   
    WET( 18, 25)   WET( 19, 24)   WET( 19, 25)   WET( 20, 23)   WET( 20, 24)   
    WET( 21, 22)   WET( 21, 23)   WET( 22, 21)   WET( 22, 22)   WET( 23, 20)   
    WET( 23, 21)   WET( 24, 19)   WET( 24, 20)   WET( 25, 17)   WET( 25, 18)   
    WET( 25, 19)   WET( 26, 16)   WET( 26, 17)   WET( 27, 13)   WET( 27, 14)   
    WET( 27, 15)   WET( 28, 10)   WET( 28, 11)   WET( 28, 12)   WET( 28, 13)   
    WET( 29,  7)   WET( 29,  8)   WET( 29,  9)   WET( 29, 10)   WET( 29, 11)   
    WET( 30,  1)   WET( 30,  2)   WET( 30,  3)   WET( 30,  4)   WET( 30,  5)   
     5 CALLS TO PCG ROUTINE FOR TIME STEP  17 IN STRESS PERIOD    3
    41 TOTAL ITERATIONS

 MAXIMUM HEAD CHANGE FOR EACH ITERATION (1 INDICATES THE FIRST INNER ITERATION):

    HEAD CHANGE    HEAD CHANGE    HEAD CHANGE    HEAD CHANGE    HEAD CHANGE 
   LAYER,ROW,COL  LAYER,ROW,COL  LAYER,ROW,COL  LAYER,ROW,COL  LAYER,ROW,COL
 ---------------------------------------------------------------------------
  1  0.3217      0 -0.5906E-01  0  0.1937E-01  0 -0.9945E-02  0 -0.6274E-02
   (  8, 12,  6)  ( 13, 13,  6)  ( 14,  9, 33)  ( 14, 29,  6)  ( 14, 32,  8)
  0 -0.3500E-02  0 -0.2213E-02  0 -0.1690E-02  0  0.9570E-03  0  0.6133E-03
   ( 14, 33, 20)  ( 14, 32, 26)  ( 14, 31, 31)  ( 13, 33, 33)  ( 12, 35,  4)
  0  0.3133E-03  0 -0.2257E-03  0 -0.1067E-03  0 -0.5776E-04  1 -0.3310    
   ( 12, 26, 35)  ( 14,  5,  5)  ( 14,  2,  5)  ( 14, 25, 33)  ( 10, 29, 10)
  0  0.1759      0  0.8114E-01  0  0.3883E-01  0  0.1534E-01  0  0.1035E-01
   ( 13,  2,  2)  ( 14, 34,  1)  ( 14,  6, 35)  ( 14, 33,  5)  ( 14, 32, 26)
  0  0.5762E-02  0 -0.2628E-02  0  0.1394E-02  0 -0.1074E-02  0  0.5831E-03
   ( 14, 31, 31)  ( 11, 35,  2)  ( 14, 34, 16)  ( 14, 30, 30)  ( 14, 35, 10)
  0  0.3113E-03  0  0.3460E-03  0  0.1590E-03  0  0.6377E-04  1 -0.3783E-02
   ( 14, 26, 29)  ( 14, 33, 25)  ( 14, 32, 32)  ( 14, 17, 37)  (  4,  2,  2)
  0  0.3193E-02  0 -0.8545E-03  0 -0.8988E-03  0 -0.1944E-03  0  0.1827E-03
   ( 12,  2,  2)  (  4,  2,  2)  ( 13,  2,  2)  ( 14, 33, 24)  (  6,  2,  2)
  0  0.8357E-04  1 -0.3099E-03  0 -0.2094E-03  0  0.1487E-03  0  0.6370E-04
   (  6,  2,  2)  (  5,  2,  2)  (  4,  2,  2)  ( 13,  2,  2)  ( 13,  2,  2)
  1 -0.4521E-04
   (  5,  2,  2)

 MAXIMUM RESIDUAL FOR EACH ITERATION (1 INDICATES THE FIRST INNER ITERATION):

    RESIDUAL       RESIDUAL       RESIDUAL       RESIDUAL       RESIDUAL    
   LAYER,ROW,COL  LAYER,ROW,COL  LAYER,ROW,COL  LAYER,ROW,COL  LAYER,ROW,COL
 ---------------------------------------------------------------------------
  1   5.574      0   1.871      0 -0.8946      0 -0.5061      0  0.4229    
   ( 10,  6, 12)  ( 11,  6, 29)  ( 13,  6, 13)  (  7,  2,  2)  ( 14,  9,  9)
  0  0.2230      0  0.1222      0  0.6776E-01  0  0.4643E-01  0 -0.3142E-01
   ( 14,  9,  9)  (  8,  6,  6)  (  8,  2,  2)  (  8,  2,  2)  ( 13,  2,  2)
  0  0.1757E-01  0 -0.1300E-01  0 -0.8102E-02  0  0.4594E-02  1  -17.22    
   (  8,  2,  2)  ( 10,  8, 11)  ( 10,  9, 10)  ( 13, 12,  6)  (  8,  7, 12)
  0   6.951      0   4.034      0  -1.525      0 -0.9535      0 -0.4105    
   ( 13,  2,  2)  ( 13,  2,  2)  (  7,  2,  2)  (  7,  2,  2)  ( 10,  7, 12)
  0 -0.3550      0  0.1869      0  0.1254      0  0.8026E-01  0 -0.5192E-01
   ( 10,  7, 12)  ( 11, 12, 27)  ( 11, 19, 23)  ( 11, 19, 23)  ( 10,  9, 28)
  0 -0.3393E-01  0  0.2337E-01  0  0.1608E-01  0  0.1058E-01  1  -1.055    
   ( 10,  9, 28)  ( 11, 15, 26)  ( 11, 15, 26)  ( 11, 15, 26)  (  8,  7, 12)
  0 -0.4678      0 -0.2625      0 -0.1348      0 -0.9195E-01  0 -0.5081E-01
   (  8,  7, 12)  (  8,  7, 12)  (  8,  7, 12)  (  8,  7, 12)  (  8,  7, 12)
  0  0.2731E-01  1  0.1610      0  0.1088      0  0.5013E-01  0  0.2761E-01
   (  9, 12,  7)  (  5,  2,  2)  (  5,  2,  2)  (  5,  2,  2)  (  5,  2,  2)
  1  0.5035E-01
   (  5,  2,  2)



 OUTPUT CONTROL FOR STRESS PERIOD    3   TIME STEP   17
    SAVE BUDGET
    PRINT HEAD FOR ALL LAYERS
    PRINT BUDGET
 UBDSV1 SAVING "         STORAGE" ON UNIT  32 AT TIME STEP 17, STRESS PERIOD   3
 UBDSV2 SAVING "   CONSTANT HEAD" ON UNIT  32 AT TIME STEP 17, STRESS PERIOD   3
 UBDSV1 SAVING "FLOW RIGHT FACE " ON UNIT  32 AT TIME STEP 17, STRESS PERIOD   3
 UBDSV1 SAVING "FLOW FRONT FACE " ON UNIT  32 AT TIME STEP 17, STRESS PERIOD   3
 UBDSV1 SAVING "FLOW LOWER FACE " ON UNIT  32 AT TIME STEP 17, STRESS PERIOD   3
 UBDSV3 SAVING "        RECHARGE" ON UNIT  32 AT TIME STEP 17, STRESS PERIOD   3
1
              HEAD IN LAYER   1 AT END OF TIME STEP  17 IN STRESS PERIOD    3
  ---------------------------------------------------------------------------

            1           2           3           4           5           6           7           8           9          10
           11          12          13          14          15          16          17          18          19          20
           21          22          23          24          25          26          27          28          29          30
           31          32          33          34          35          36          37          38          39          40
 ........................................................................................................................
   1   -99.90      -99.90      -99.90      -99.90      -99.90      -99.90      -99.90      -99.90      -99.90      -99.90    
       -99.90      -99.90      -99.90      -99.90      -99.90      -99.90      -99.90      -99.90      -99.90      -99.90    
       -99.90      -99.90      -99.90      -99.90      -99.90      -99.90      -99.90      -99.90      -99.90      -99.90    
       -99.90      -99.90      -99.90      -99.90      -99.90      -99.90      -99.90      -99.90      -99.90      -99.90    
   2   -99.90      -99.90      -99.90      -99.90      -99.90      -99.90      -99.90      -99.90      -99.90      -99.90    
       -99.90      -99.90      -99.90      -99.90      -99.90      -99.90      -99.90      -99.90      -99.90      -99.90    
       -99.90      -99.90      -99.90      -99.90      -99.90      -99.90      -99.90      -99.90      -99.90      -99.90    
       -99.90      -99.90      -99.90      -99.90      -99.90      -99.90      -99.90      -99.90      -99.90      -99.90    
   3   -99.90      -99.90      -99.90      -99.90      -99.90      -99.90      -99.90      -99.90      -99.90      -99.90    
       -99.90      -99.90      -99.90      -99.90      -99.90      -99.90      -99.90      -99.90      -99.90      -99.90    
       -99.90      -99.90      -99.90      -99.90      -99.90      -99.90      -99.90      -99.90      -99.90      -99.90    
       -99.90      -99.90      -99.90      -99.90      -99.90      -99.90      -99.90      -99.90      -99.90      -99.90    
   4   -99.90      -99.90      -99.90      -99.90      -99.90      -99.90      -99.90      -99.90      -99.90      -99.90    
       -99.90      -99.90      -99.90      -99.90      -99.90      -99.90      -99.90      -99.90      -99.90      -99.90    
       -99.90      -99.90      -99.90      -99.90      -99.90      -99.90      -99.90      -99.90      -99.90      -99.90    
       -99.90      -99.90      -99.90      -99.90      -99.90      -99.90      -99.90      -99.90      -99.90      -99.90    
   5   -99.90      -99.90      -99.90      -99.90      -99.90      -99.90      -99.90      -99.90      -99.90      -99.90    
       -99.90      -99.90      -99.90      -99.90      -99.90      -99.90      -99.90      -99.90      -99.90      -99.90    
       -99.90      -99.90      -99.90      -99.90      -99.90      -99.90      -99.90      -99.90      -99.90      -99.90    
       -99.90      -99.90      -99.90      -99.90      -99.90      -99.90      -99.90      -99.90      -99.90      -99.90    
   6   -99.90      -99.90      -99.90      -99.90      -99.90      -99.90      -99.90      -99.90      -99.90      -99.90    
       -99.90      -99.90      -99.90      -99.90      -99.90      -99.90      -99.90      -99.90      -99.90      -99.90    
       -99.90      -99.90      -99.90      -99.90      -99.90      -99.90      -99.90      -99.90      -99.90      -99.90    
       -99.90      -99.90      -99.90      -99.90      -99.90      -99.90      -99.90      -99.90      -99.90      -99.90    
   7   -99.90      -99.90      -99.90      -99.90      -99.90      -99.90      -99.90      -99.90      -99.90      -99.90    
       -99.90      -99.90      -99.90      -99.90      -99.90      -99.90      -99.90      -99.90      -99.90      -99.90    
       -99.90      -99.90      -99.90      -99.90      -99.90      -99.90      -99.90      -99.90      -99.90      -99.90    
       -99.90      -99.90      -99.90      -99.90      -99.90      -99.90      -99.90      -99.90      -99.90      -99.90    
   8   -99.90      -99.90      -99.90      -99.90      -99.90      -99.90      -99.90      -99.90      -99.90      -99.90    
       -99.90      -99.90      -99.90      -99.90      -99.90      -99.90      -99.90      -99.90      -99.90      -99.90    
       -99.90      -99.90      -99.90      -99.90      -99.90      -99.90      -99.90      -99.90      -99.90      -99.90    
       -99.90      -99.90      -99.90      -99.90      -99.90      -99.90      -99.90      -99.90      -99.90      -99.90    
   9   -99.90      -99.90      -99.90      -99.90      -99.90      -99.90      -99.90      -99.90      -99.90      -99.90    
       -99.90      -99.90      -99.90      -99.90      -99.90      -99.90      -99.90      -99.90      -99.90      -99.90    
       -99.90      -99.90      -99.90      -99.90      -99.90      -99.90      -99.90      -99.90      -99.90      -99.90    
       -99.90      -99.90      -99.90      -99.90      -99.90      -99.90      -99.90      -99.90      -99.90      -99.90    
  10   -99.90      -99.90      -99.90      -99.90      -99.90      -99.90      -99.90      -99.90      -99.90      -99.90    
       -99.90      -99.90      -99.90      -99.90      -99.90      -99.90      -99.90      -99.90      -99.90      -99.90    
       -99.90      -99.90      -99.90      -99.90      -99.90      -99.90      -99.90      -99.90      -99.90      -99.90    
       -99.90      -99.90      -99.90      -99.90      -99.90      -99.90      -99.90      -99.90      -99.90      -99.90    
  11   -99.90      -99.90      -99.90      -99.90      -99.90      -99.90      -99.90      -99.90      -99.90      -99.90    
       -99.90      -99.90      -99.90      -99.90      -99.90      -99.90      -99.90      -99.90      -99.90      -99.90    
       -99.90      -99.90      -99.90      -99.90      -99.90      -99.90      -99.90      -99.90      -99.90      -99.90    
       -99.90      -99.90      -99.90      -99.90      -99.90      -99.90      -99.90      -99.90      -99.90      -99.90    
  12   -99.90      -99.90      -99.90      -99.90      -99.90      -99.90      -99.90      -99.90      -99.90      -99.90    
       -99.90      -99.90      -99.90      -99.90      -99.90      -99.90      -99.90      -99.90      -99.90      -99.90    
       -99.90      -99.90      -99.90      -99.90      -99.90      -99.90      -99.90      -99.90      -99.90      -99.90    
       -99.90      -99.90      -99.90      -99.90      -99.90      -99.90      -99.90      -99.90      -99.90      -99.90    
  13   -99.90      -99.90      -99.90      -99.90      -99.90      -99.90      -99.90      -99.90      -99.90      -99.90    
       -99.90      -99.90      -99.90      -99.90      -99.90      -99.90      -99.90      -99.90      -99.90      -99.90    
       -99.90      -99.90      -99.90      -99.90      -99.90      -99.90      -99.90      -99.90      -99.90      -99.90    
       -99.90      -99.90      -99.90      -99.90      -99.90      -99.90      -99.90      -99.90      -99.90      -99.90    
  14   -99.90      -99.90      -99.90      -99.90      -99.90      -99.90      -99.90      -99.90      -99.90      -99.90    
       -99.90      -99.90      -99.90      -99.90      -99.90      -99.90      -99.90      -99.90      -99.90      -99.90    
       -99.90      -99.90      -99.90      -99.90      -99.90      -99.90      -99.90      -99.90      -99.90      -99.90    
       -99.90      -99.90      -99.90      -99.90      -99.90      -99.90      -99.90      -99.90      -99.90      -99.90    
  15   -99.90      -99.90      -99.90      -99.90      -99.90      -99.90      -99.90      -99.90      -99.90      -99.90    
       -99.90      -99.90      -99.90      -99.90      -99.90      -99.90      -99.90      -99.90      -99.90      -99.90    
       -99.90      -99.90      -99.90      -99.90      -99.90      -99.90      -99.90      -99.90      -99.90      -99.90    
       -99.90      -99.90      -99.90      -99.90      -99.90      -99.90      -99.90      -99.90      -99.90      -99.90    
  16   -99.90      -99.90      -99.90      -99.90      -99.90      -99.90      -99.90      -99.90      -99.90      -99.90    
       -99.90      -99.90      -99.90      -99.90      -99.90      -99.90      -99.90      -99.90      -99.90      -99.90    
       -99.90      -99.90      -99.90      -99.90      -99.90      -99.90      -99.90      -99.90      -99.90      -99.90    
       -99.90      -99.90      -99.90      -99.90      -99.90      -99.90      -99.90      -99.90      -99.90      -99.90    
  17   -99.90      -99.90      -99.90      -99.90      -99.90      -99.90      -99.90      -99.90      -99.90      -99.90    
       -99.90      -99.90      -99.90      -99.90      -99.90      -99.90      -99.90      -99.90      -99.90      -99.90    
       -99.90      -99.90      -99.90      -99.90      -99.90      -99.90      -99.90      -99.90      -99.90      -99.90    
       -99.90      -99.90      -99.90      -99.90      -99.90      -99.90      -99.90      -99.90      -99.90      -99.90    
  18   -99.90      -99.90      -99.90      -99.90      -99.90      -99.90      -99.90      -99.90      -99.90      -99.90    
       -99.90      -99.90      -99.90      -99.90      -99.90      -99.90      -99.90      -99.90      -99.90      -99.90    
       -99.90      -99.90      -99.90      -99.90      -99.90      -99.90      -99.90      -99.90      -99.90      -99.90    
       -99.90      -99.90      -99.90      -99.90      -99.90      -99.90      -99.90      -99.90      -99.90      -99.90    
  19   -99.90      -99.90      -99.90      -99.90      -99.90      -99.90      -99.90      -99.90      -99.90      -99.90    
       -99.90      -99.90      -99.90      -99.90      -99.90      -99.90      -99.90      -99.90      -99.90      -99.90    
       -99.90      -99.90      -99.90      -99.90      -99.90      -99.90      -99.90      -99.90      -99.90      -99.90    
       -99.90      -99.90      -99.90      -99.90      -99.90      -99.90      -99.90      -99.90      -99.90      -99.90    
  20   -99.90      -99.90      -99.90      -99.90      -99.90      -99.90      -99.90      -99.90      -99.90      -99.90    
       -99.90      -99.90      -99.90      -99.90      -99.90      -99.90      -99.90      -99.90      -99.90      -99.90    
       -99.90      -99.90      -99.90      -99.90      -99.90      -99.90      -99.90      -99.90      -99.90      -99.90    
       -99.90      -99.90      -99.90      -99.90      -99.90      -99.90      -99.90      -99.90      -99.90      -99.90    
  21   -99.90      -99.90      -99.90      -99.90      -99.90      -99.90      -99.90      -99.90      -99.90      -99.90    
       -99.90      -99.90      -99.90      -99.90      -99.90      -99.90      -99.90      -99.90      -99.90      -99.90    
       -99.90      -99.90      -99.90      -99.90      -99.90      -99.90      -99.90      -99.90      -99.90      -99.90    
       -99.90      -99.90      -99.90      -99.90      -99.90      -99.90      -99.90      -99.90      -99.90      -99.90    
  22   -99.90      -99.90      -99.90      -99.90      -99.90      -99.90      -99.90      -99.90      -99.90      -99.90    
       -99.90      -99.90      -99.90      -99.90      -99.90      -99.90      -99.90      -99.90      -99.90      -99.90    
       -99.90      -99.90      -99.90      -99.90      -99.90      -99.90      -99.90      -99.90      -99.90      -99.90    
       -99.90      -99.90      -99.90      -99.90      -99.90      -99.90      -99.90      -99.90      -99.90      -99.90    
  23   -99.90      -99.90      -99.90      -99.90      -99.90      -99.90      -99.90      -99.90      -99.90      -99.90    
       -99.90      -99.90      -99.90      -99.90      -99.90      -99.90      -99.90      -99.90      -99.90      -99.90    
       -99.90      -99.90      -99.90      -99.90      -99.90      -99.90      -99.90      -99.90      -99.90      -99.90    
       -99.90      -99.90      -99.90      -99.90      -99.90      -99.90      -99.90      -99.90      -99.90      -99.90    
  24   -99.90      -99.90      -99.90      -99.90      -99.90      -99.90      -99.90      -99.90      -99.90      -99.90    
       -99.90      -99.90      -99.90      -99.90      -99.90      -99.90      -99.90      -99.90      -99.90      -99.90    
       -99.90      -99.90      -99.90      -99.90      -99.90      -99.90      -99.90      -99.90      -99.90      -99.90    
       -99.90      -99.90      -99.90      -99.90      -99.90      -99.90      -99.90      -99.90      -99.90      -99.90    
  25   -99.90      -99.90      -99.90      -99.90      -99.90      -99.90      -99.90      -99.90      -99.90      -99.90    
       -99.90      -99.90      -99.90      -99.90      -99.90      -99.90      -99.90      -99.90      -99.90      -99.90    
       -99.90      -99.90      -99.90      -99.90      -99.90      -99.90      -99.90      -99.90      -99.90      -99.90    
       -99.90      -99.90      -99.90      -99.90      -99.90      -99.90      -99.90      -99.90      -99.90      -99.90    
  26   -99.90      -99.90      -99.90      -99.90      -99.90      -99.90      -99.90      -99.90      -99.90      -99.90    
       -99.90      -99.90      -99.90      -99.90      -99.90      -99.90      -99.90      -99.90      -99.90      -99.90    
       -99.90      -99.90      -99.90      -99.90      -99.90      -99.90      -99.90      -99.90      -99.90      -99.90    
       -99.90      -99.90      -99.90      -99.90      -99.90      -99.90      -99.90      -99.90      -99.90      -99.90    
  27   -99.90      -99.90      -99.90      -99.90      -99.90      -99.90      -99.90      -99.90      -99.90      -99.90    
       -99.90      -99.90      -99.90      -99.90      -99.90      -99.90      -99.90      -99.90      -99.90      -99.90    
       -99.90      -99.90      -99.90      -99.90      -99.90      -99.90      -99.90      -99.90      -99.90      -99.90    
       -99.90      -99.90      -99.90      -99.90      -99.90      -99.90      -99.90      -99.90      -99.90      -99.90    
  28   -99.90      -99.90      -99.90      -99.90      -99.90      -99.90      -99.90      -99.90      -99.90      -99.90    
       -99.90      -99.90      -99.90      -99.90      -99.90      -99.90      -99.90      -99.90      -99.90      -99.90    
       -99.90      -99.90      -99.90      -99.90      -99.90      -99.90      -99.90      -99.90      -99.90      -99.90    
       -99.90      -99.90      -99.90      -99.90      -99.90      -99.90      -99.90      -99.90      -99.90      -99.90    
  29   -99.90      -99.90      -99.90      -99.90      -99.90      -99.90      -99.90      -99.90      -99.90      -99.90    
       -99.90      -99.90      -99.90      -99.90      -99.90      -99.90      -99.90      -99.90      -99.90      -99.90    
       -99.90      -99.90      -99.90      -99.90      -99.90      -99.90      -99.90      -99.90      -99.90      -99.90    
       -99.90      -99.90      -99.90      -99.90      -99.90      -99.90      -99.90      -99.90      -99.90      -99.90    
  30   -99.90      -99.90      -99.90      -99.90      -99.90      -99.90      -99.90      -99.90      -99.90      -99.90    
       -99.90      -99.90      -99.90      -99.90      -99.90      -99.90      -99.90      -99.90      -99.90      -99.90    
       -99.90      -99.90      -99.90      -99.90      -99.90      -99.90      -99.90      -99.90      -99.90      -99.90    
       -99.90      -99.90      -99.90      -99.90      -99.90      -99.90      -99.90      -99.90      -99.90      -99.90    
  31   -99.90      -99.90      -99.90      -99.90      -99.90      -99.90      -99.90      -99.90      -99.90      -99.90    
       -99.90      -99.90      -99.90      -99.90      -99.90      -99.90      -99.90      -99.90      -99.90      -99.90    
       -99.90      -99.90      -99.90      -99.90      -99.90      -99.90      -99.90      -99.90      -99.90      -99.90    
       -99.90      -99.90      -99.90      -99.90      -99.90      -99.90      -99.90      -99.90      -99.90      -99.90    
  32   -99.90      -99.90      -99.90      -99.90      -99.90      -99.90      -99.90      -99.90      -99.90      -99.90    
       -99.90      -99.90      -99.90      -99.90      -99.90      -99.90      -99.90      -99.90      -99.90      -99.90    
       -99.90      -99.90      -99.90      -99.90      -99.90      -99.90      -99.90      -99.90      -99.90      -99.90    
       -99.90      -99.90      -99.90      -99.90      -99.90      -99.90      -99.90      -99.90      -99.90      -99.90    
  33   -99.90      -99.90      -99.90      -99.90      -99.90      -99.90      -99.90      -99.90      -99.90      -99.90    
       -99.90      -99.90      -99.90      -99.90      -99.90      -99.90      -99.90      -99.90      -99.90      -99.90    
       -99.90      -99.90      -99.90      -99.90      -99.90      -99.90      -99.90      -99.90      -99.90      -99.90    
       -99.90      -99.90      -99.90      -99.90      -99.90      -99.90      -99.90      -99.90      -99.90      -99.90    
  34   -99.90      -99.90      -99.90      -99.90      -99.90      -99.90      -99.90      -99.90      -99.90      -99.90    
       -99.90      -99.90      -99.90      -99.90      -99.90      -99.90      -99.90      -99.90      -99.90      -99.90    
       -99.90      -99.90      -99.90      -99.90      -99.90      -99.90      -99.90      -99.90      -99.90      -99.90    
       -99.90      -99.90      -99.90      -99.90      -99.90      -99.90      -99.90      -99.90      -99.90      -99.90    
  35   -99.90      -99.90      -99.90      -99.90      -99.90      -99.90      -99.90      -99.90      -99.90      -99.90    
       -99.90      -99.90      -99.90      -99.90      -99.90      -99.90      -99.90      -99.90      -99.90      -99.90    
       -99.90      -99.90      -99.90      -99.90      -99.90      -99.90      -99.90      -99.90      -99.90      -99.90    
       -99.90      -99.90      -99.90      -99.90      -99.90      -99.90      -99.90      -99.90      -99.90      -99.90    
  36   -99.90      -99.90      -99.90      -99.90      -99.90      -99.90      -99.90      -99.90      -99.90      -99.90    
       -99.90      -99.90      -99.90      -99.90      -99.90      -99.90      -99.90      -99.90      -99.90      -99.90    
       -99.90      -99.90      -99.90      -99.90      -99.90      -99.90      -99.90      -99.90      -99.90      -99.90    
       -99.90      -99.90      -99.90      -99.90      -99.90      -99.90      -99.90      -99.90      -99.90      -99.90    
  37   -99.90      -99.90      -99.90      -99.90      -99.90      -99.90      -99.90      -99.90      -99.90      -99.90    
       -99.90      -99.90      -99.90      -99.90      -99.90      -99.90      -99.90      -99.90      -99.90      -99.90    
       -99.90      -99.90      -99.90      -99.90      -99.90      -99.90      -99.90      -99.90      -99.90      -99.90    
       -99.90      -99.90      -99.90      -99.90      -99.90      -99.90      -99.90      -99.90      -99.90      -99.90    
  38   -99.90      -99.90      -99.90      -99.90      -99.90      -99.90      -99.90      -99.90      -99.90      -99.90    
       -99.90      -99.90      -99.90      -99.90      -99.90      -99.90      -99.90      -99.90      -99.90      -99.90    
       -99.90      -99.90      -99.90      -99.90      -99.90      -99.90      -99.90      -99.90      -99.90      -99.90    
       -99.90      -99.90      -99.90      -99.90      -99.90      -99.90      -99.90      -99.90      -99.90      -99.90    
  39   -99.90      -99.90      -99.90      -99.90      -99.90      -99.90      -99.90      -99.90      -99.90      -99.90    
       -99.90      -99.90      -99.90      -99.90      -99.90      -99.90      -99.90      -99.90      -99.90      -99.90    
       -99.90      -99.90      -99.90      -99.90      -99.90      -99.90      -99.90      -99.90      -99.90      -99.90    
       -99.90      -99.90      -99.90      -99.90      -99.90      -99.90      -99.90      -99.90      -99.90      -99.90    
  40   -99.90      -99.90      -99.90      -99.90      -99.90      -99.90      -99.90      -99.90      -99.90      -99.90    
       -99.90      -99.90      -99.90      -99.90      -99.90      -99.90      -99.90      -99.90      -99.90      -99.90    
       -99.90      -99.90      -99.90      -99.90      -99.90      -99.90      -99.90      -99.90      -99.90      -99.90    
       -99.90      -99.90      -99.90      -99.90      -99.90      -99.90      -99.90      -99.90      -99.90      -99.90    
1
              HEAD IN LAYER   2 AT END OF TIME STEP  17 IN STRESS PERIOD    3
  ---------------------------------------------------------------------------

            1           2           3           4           5           6           7           8           9          10
           11          12          13          14          15          16          17          18          19          20
           21          22          23          24          25          26          27          28          29          30
           31          32          33          34          35          36          37          38          39          40
 ........................................................................................................................
   1   -99.90      -99.90      -99.90      -99.90      -99.90      -99.90      -99.90      -99.90      -99.90      -99.90    
       -99.90      -99.90      -99.90      -99.90      -99.90      -99.90      -99.90      -99.90      -99.90      -99.90    
       -99.90      -99.90      -99.90      -99.90      -99.90      -99.90      -99.90      -99.90      -99.90      -99.90    
       -99.90      -99.90      -99.90      -99.90      -99.90      -99.90      -99.90      -99.90      -99.90      -99.90    
   2   -99.90      -99.90      -99.90      -99.90      -99.90      -99.90      -99.90      -99.90      -99.90      -99.90    
       -99.90      -99.90      -99.90      -99.90      -99.90      -99.90      -99.90      -99.90      -99.90      -99.90    
       -99.90      -99.90      -99.90      -99.90      -99.90      -99.90      -99.90      -99.90      -99.90      -99.90    
       -99.90      -99.90      -99.90      -99.90      -99.90      -99.90      -99.90      -99.90      -99.90      -99.90    
   3   -99.90      -99.90      -99.90      -99.90      -99.90      -99.90      -99.90      -99.90      -99.90      -99.90    
       -99.90      -99.90      -99.90      -99.90      -99.90      -99.90      -99.90      -99.90      -99.90      -99.90    
       -99.90      -99.90      -99.90      -99.90      -99.90      -99.90      -99.90      -99.90      -99.90      -99.90    
       -99.90      -99.90      -99.90      -99.90      -99.90      -99.90      -99.90      -99.90      -99.90      -99.90    
   4   -99.90      -99.90      -99.90      -99.90      -99.90      -99.90      -99.90      -99.90      -99.90      -99.90    
       -99.90      -99.90      -99.90      -99.90      -99.90      -99.90      -99.90      -99.90      -99.90      -99.90    
       -99.90      -99.90      -99.90      -99.90      -99.90      -99.90      -99.90      -99.90      -99.90      -99.90    
       -99.90      -99.90      -99.90      -99.90      -99.90      -99.90      -99.90      -99.90      -99.90      -99.90    
   5   -99.90      -99.90      -99.90      -99.90      -99.90      -99.90      -99.90      -99.90      -99.90      -99.90    
       -99.90      -99.90      -99.90      -99.90      -99.90      -99.90      -99.90      -99.90      -99.90      -99.90    
       -99.90      -99.90      -99.90      -99.90      -99.90      -99.90      -99.90      -99.90      -99.90      -99.90    
       -99.90      -99.90      -99.90      -99.90      -99.90      -99.90      -99.90      -99.90      -99.90      -99.90    
   6   -99.90      -99.90      -99.90      -99.90      -99.90      -99.90      -99.90      -99.90      -99.90      -99.90    
       -99.90      -99.90      -99.90      -99.90      -99.90      -99.90      -99.90      -99.90      -99.90      -99.90    
       -99.90      -99.90      -99.90      -99.90      -99.90      -99.90      -99.90      -99.90      -99.90      -99.90    
       -99.90      -99.90      -99.90      -99.90      -99.90      -99.90      -99.90      -99.90      -99.90      -99.90    
   7   -99.90      -99.90      -99.90      -99.90      -99.90      -99.90      -99.90      -99.90      -99.90      -99.90    
       -99.90      -99.90      -99.90      -99.90      -99.90      -99.90      -99.90      -99.90      -99.90      -99.90    
       -99.90      -99.90      -99.90      -99.90      -99.90      -99.90      -99.90      -99.90      -99.90      -99.90    
       -99.90      -99.90      -99.90      -99.90      -99.90      -99.90      -99.90      -99.90      -99.90      -99.90    
   8   -99.90      -99.90      -99.90      -99.90      -99.90      -99.90      -99.90      -99.90      -99.90      -99.90    
       -99.90      -99.90      -99.90      -99.90      -99.90      -99.90      -99.90      -99.90      -99.90      -99.90    
       -99.90      -99.90      -99.90      -99.90      -99.90      -99.90      -99.90      -99.90      -99.90      -99.90    
       -99.90      -99.90      -99.90      -99.90      -99.90      -99.90      -99.90      -99.90      -99.90      -99.90    
   9   -99.90      -99.90      -99.90      -99.90      -99.90      -99.90      -99.90      -99.90      -99.90      -99.90    
       -99.90      -99.90      -99.90      -99.90      -99.90      -99.90      -99.90      -99.90      -99.90      -99.90    
       -99.90      -99.90      -99.90      -99.90      -99.90      -99.90      -99.90      -99.90      -99.90      -99.90    
       -99.90      -99.90      -99.90      -99.90      -99.90      -99.90      -99.90      -99.90      -99.90      -99.90    
  10   -99.90      -99.90      -99.90      -99.90      -99.90      -99.90      -99.90      -99.90      -99.90      -99.90    
       -99.90      -99.90      -99.90      -99.90      -99.90      -99.90      -99.90      -99.90      -99.90      -99.90    
       -99.90      -99.90      -99.90      -99.90      -99.90      -99.90      -99.90      -99.90      -99.90      -99.90    
       -99.90      -99.90      -99.90      -99.90      -99.90      -99.90      -99.90      -99.90      -99.90      -99.90    
  11   -99.90      -99.90      -99.90      -99.90      -99.90      -99.90      -99.90      -99.90      -99.90      -99.90    
       -99.90      -99.90      -99.90      -99.90      -99.90      -99.90      -99.90      -99.90      -99.90      -99.90    
       -99.90      -99.90      -99.90      -99.90      -99.90      -99.90      -99.90      -99.90      -99.90      -99.90    
       -99.90      -99.90      -99.90      -99.90      -99.90      -99.90      -99.90      -99.90      -99.90      -99.90    
  12   -99.90      -99.90      -99.90      -99.90      -99.90      -99.90      -99.90      -99.90      -99.90      -99.90    
       -99.90      -99.90      -99.90      -99.90      -99.90      -99.90      -99.90      -99.90      -99.90      -99.90    
       -99.90      -99.90      -99.90      -99.90      -99.90      -99.90      -99.90      -99.90      -99.90      -99.90    
       -99.90      -99.90      -99.90      -99.90      -99.90      -99.90      -99.90      -99.90      -99.90      -99.90    
  13   -99.90      -99.90      -99.90      -99.90      -99.90      -99.90      -99.90      -99.90      -99.90      -99.90    
       -99.90      -99.90      -99.90      -99.90      -99.90      -99.90      -99.90      -99.90      -99.90      -99.90    
       -99.90      -99.90      -99.90      -99.90      -99.90      -99.90      -99.90      -99.90      -99.90      -99.90    
       -99.90      -99.90      -99.90      -99.90      -99.90      -99.90      -99.90      -99.90      -99.90      -99.90    
  14   -99.90      -99.90      -99.90      -99.90      -99.90      -99.90      -99.90      -99.90      -99.90      -99.90    
       -99.90      -99.90      -99.90      -99.90      -99.90      -99.90      -99.90      -99.90      -99.90      -99.90    
       -99.90      -99.90      -99.90      -99.90      -99.90      -99.90      -99.90      -99.90      -99.90      -99.90    
       -99.90      -99.90      -99.90      -99.90      -99.90      -99.90      -99.90      -99.90      -99.90      -99.90    
  15   -99.90      -99.90      -99.90      -99.90      -99.90      -99.90      -99.90      -99.90      -99.90      -99.90    
       -99.90      -99.90      -99.90      -99.90      -99.90      -99.90      -99.90      -99.90      -99.90      -99.90    
       -99.90      -99.90      -99.90      -99.90      -99.90      -99.90      -99.90      -99.90      -99.90      -99.90    
       -99.90      -99.90      -99.90      -99.90      -99.90      -99.90      -99.90      -99.90      -99.90      -99.90    
  16   -99.90      -99.90      -99.90      -99.90      -99.90      -99.90      -99.90      -99.90      -99.90      -99.90    
       -99.90      -99.90      -99.90      -99.90      -99.90      -99.90      -99.90      -99.90      -99.90      -99.90    
       -99.90      -99.90      -99.90      -99.90      -99.90      -99.90      -99.90      -99.90      -99.90      -99.90    
       -99.90      -99.90      -99.90      -99.90      -99.90      -99.90      -99.90      -99.90      -99.90      -99.90    
  17   -99.90      -99.90      -99.90      -99.90      -99.90      -99.90      -99.90      -99.90      -99.90      -99.90    
       -99.90      -99.90      -99.90      -99.90      -99.90      -99.90      -99.90      -99.90      -99.90      -99.90    
       -99.90      -99.90      -99.90      -99.90      -99.90      -99.90      -99.90      -99.90      -99.90      -99.90    
       -99.90      -99.90      -99.90      -99.90      -99.90      -99.90      -99.90      -99.90      -99.90      -99.90    
  18   -99.90      -99.90      -99.90      -99.90      -99.90      -99.90      -99.90      -99.90      -99.90      -99.90    
       -99.90      -99.90      -99.90      -99.90      -99.90      -99.90      -99.90      -99.90      -99.90      -99.90    
       -99.90      -99.90      -99.90      -99.90      -99.90      -99.90      -99.90      -99.90      -99.90      -99.90    
       -99.90      -99.90      -99.90      -99.90      -99.90      -99.90      -99.90      -99.90      -99.90      -99.90    
  19   -99.90      -99.90      -99.90      -99.90      -99.90      -99.90      -99.90      -99.90      -99.90      -99.90    
       -99.90      -99.90      -99.90      -99.90      -99.90      -99.90      -99.90      -99.90      -99.90      -99.90    
       -99.90      -99.90      -99.90      -99.90      -99.90      -99.90      -99.90      -99.90      -99.90      -99.90    
       -99.90      -99.90      -99.90      -99.90      -99.90      -99.90      -99.90      -99.90      -99.90      -99.90    
  20   -99.90      -99.90      -99.90      -99.90      -99.90      -99.90      -99.90      -99.90      -99.90      -99.90    
       -99.90      -99.90      -99.90      -99.90      -99.90      -99.90      -99.90      -99.90      -99.90      -99.90    
       -99.90      -99.90      -99.90      -99.90      -99.90      -99.90      -99.90      -99.90      -99.90      -99.90    
       -99.90      -99.90      -99.90      -99.90      -99.90      -99.90      -99.90      -99.90      -99.90      -99.90    
  21   -99.90      -99.90      -99.90      -99.90      -99.90      -99.90      -99.90      -99.90      -99.90      -99.90    
       -99.90      -99.90      -99.90      -99.90      -99.90      -99.90      -99.90      -99.90      -99.90      -99.90    
       -99.90      -99.90      -99.90      -99.90      -99.90      -99.90      -99.90      -99.90      -99.90      -99.90    
       -99.90      -99.90      -99.90      -99.90      -99.90      -99.90      -99.90      -99.90      -99.90      -99.90    
  22   -99.90      -99.90      -99.90      -99.90      -99.90      -99.90      -99.90      -99.90      -99.90      -99.90    
       -99.90      -99.90      -99.90      -99.90      -99.90      -99.90      -99.90      -99.90      -99.90      -99.90    
       -99.90      -99.90      -99.90      -99.90      -99.90      -99.90      -99.90      -99.90      -99.90      -99.90    
       -99.90      -99.90      -99.90      -99.90      -99.90      -99.90      -99.90      -99.90      -99.90      -99.90    
  23   -99.90      -99.90      -99.90      -99.90      -99.90      -99.90      -99.90      -99.90      -99.90      -99.90    
       -99.90      -99.90      -99.90      -99.90      -99.90      -99.90      -99.90      -99.90      -99.90      -99.90    
       -99.90      -99.90      -99.90      -99.90      -99.90      -99.90      -99.90      -99.90      -99.90      -99.90    
       -99.90      -99.90      -99.90      -99.90      -99.90      -99.90      -99.90      -99.90      -99.90      -99.90    
  24   -99.90      -99.90      -99.90      -99.90      -99.90      -99.90      -99.90      -99.90      -99.90      -99.90    
       -99.90      -99.90      -99.90      -99.90      -99.90      -99.90      -99.90      -99.90      -99.90      -99.90    
       -99.90      -99.90      -99.90      -99.90      -99.90      -99.90      -99.90      -99.90      -99.90      -99.90    
       -99.90      -99.90      -99.90      -99.90      -99.90      -99.90      -99.90      -99.90      -99.90      -99.90    
  25   -99.90      -99.90      -99.90      -99.90      -99.90      -99.90      -99.90      -99.90      -99.90      -99.90    
       -99.90      -99.90      -99.90      -99.90      -99.90      -99.90      -99.90      -99.90      -99.90      -99.90    
       -99.90      -99.90      -99.90      -99.90      -99.90      -99.90      -99.90      -99.90      -99.90      -99.90    
       -99.90      -99.90      -99.90      -99.90      -99.90      -99.90      -99.90      -99.90      -99.90      -99.90    
  26   -99.90      -99.90      -99.90      -99.90      -99.90      -99.90      -99.90      -99.90      -99.90      -99.90    
       -99.90      -99.90      -99.90      -99.90      -99.90      -99.90      -99.90      -99.90      -99.90      -99.90    
       -99.90      -99.90      -99.90      -99.90      -99.90      -99.90      -99.90      -99.90      -99.90      -99.90    
       -99.90      -99.90      -99.90      -99.90      -99.90      -99.90      -99.90      -99.90      -99.90      -99.90    
  27   -99.90      -99.90      -99.90      -99.90      -99.90      -99.90      -99.90      -99.90      -99.90      -99.90    
       -99.90      -99.90      -99.90      -99.90      -99.90      -99.90      -99.90      -99.90      -99.90      -99.90    
       -99.90      -99.90      -99.90      -99.90      -99.90      -99.90      -99.90      -99.90      -99.90      -99.90    
       -99.90      -99.90      -99.90      -99.90      -99.90      -99.90      -99.90      -99.90      -99.90      -99.90    
  28   -99.90      -99.90      -99.90      -99.90      -99.90      -99.90      -99.90      -99.90      -99.90      -99.90    
       -99.90      -99.90      -99.90      -99.90      -99.90      -99.90      -99.90      -99.90      -99.90      -99.90    
       -99.90      -99.90      -99.90      -99.90      -99.90      -99.90      -99.90      -99.90      -99.90      -99.90    
       -99.90      -99.90      -99.90      -99.90      -99.90      -99.90      -99.90      -99.90      -99.90      -99.90    
  29   -99.90      -99.90      -99.90      -99.90      -99.90      -99.90      -99.90      -99.90      -99.90      -99.90    
       -99.90      -99.90      -99.90      -99.90      -99.90      -99.90      -99.90      -99.90      -99.90      -99.90    
       -99.90      -99.90      -99.90      -99.90      -99.90      -99.90      -99.90      -99.90      -99.90      -99.90    
       -99.90      -99.90      -99.90      -99.90      -99.90      -99.90      -99.90      -99.90      -99.90      -99.90    
  30   -99.90      -99.90      -99.90      -99.90      -99.90      -99.90      -99.90      -99.90      -99.90      -99.90    
       -99.90      -99.90      -99.90      -99.90      -99.90      -99.90      -99.90      -99.90      -99.90      -99.90    
       -99.90      -99.90      -99.90      -99.90      -99.90      -99.90      -99.90      -99.90      -99.90      -99.90    
       -99.90      -99.90      -99.90      -99.90      -99.90      -99.90      -99.90      -99.90      -99.90      -99.90    
  31   -99.90      -99.90      -99.90      -99.90      -99.90      -99.90      -99.90      -99.90      -99.90      -99.90    
       -99.90      -99.90      -99.90      -99.90      -99.90      -99.90      -99.90      -99.90      -99.90      -99.90    
       -99.90      -99.90      -99.90      -99.90      -99.90      -99.90      -99.90      -99.90      -99.90      -99.90    
       -99.90      -99.90      -99.90      -99.90      -99.90      -99.90      -99.90      -99.90      -99.90      -99.90    
  32   -99.90      -99.90      -99.90      -99.90      -99.90      -99.90      -99.90      -99.90      -99.90      -99.90    
       -99.90      -99.90      -99.90      -99.90      -99.90      -99.90      -99.90      -99.90      -99.90      -99.90    
       -99.90      -99.90      -99.90      -99.90      -99.90      -99.90      -99.90      -99.90      -99.90      -99.90    
       -99.90      -99.90      -99.90      -99.90      -99.90      -99.90      -99.90      -99.90      -99.90      -99.90    
  33   -99.90      -99.90      -99.90      -99.90      -99.90      -99.90      -99.90      -99.90      -99.90      -99.90    
       -99.90      -99.90      -99.90      -99.90      -99.90      -99.90      -99.90      -99.90      -99.90      -99.90    
       -99.90      -99.90      -99.90      -99.90      -99.90      -99.90      -99.90      -99.90      -99.90      -99.90    
       -99.90      -99.90      -99.90      -99.90      -99.90      -99.90      -99.90      -99.90      -99.90      -99.90    
  34   -99.90      -99.90      -99.90      -99.90      -99.90      -99.90      -99.90      -99.90      -99.90      -99.90    
       -99.90      -99.90      -99.90      -99.90      -99.90      -99.90      -99.90      -99.90      -99.90      -99.90    
       -99.90      -99.90      -99.90      -99.90      -99.90      -99.90      -99.90      -99.90      -99.90      -99.90    
       -99.90      -99.90      -99.90      -99.90      -99.90      -99.90      -99.90      -99.90      -99.90      -99.90    
  35   -99.90      -99.90      -99.90      -99.90      -99.90      -99.90      -99.90      -99.90      -99.90      -99.90    
       -99.90      -99.90      -99.90      -99.90      -99.90      -99.90      -99.90      -99.90      -99.90      -99.90    
       -99.90      -99.90      -99.90      -99.90      -99.90      -99.90      -99.90      -99.90      -99.90      -99.90    
       -99.90      -99.90      -99.90      -99.90      -99.90      -99.90      -99.90      -99.90      -99.90      -99.90    
  36   -99.90      -99.90      -99.90      -99.90      -99.90      -99.90      -99.90      -99.90      -99.90      -99.90    
       -99.90      -99.90      -99.90      -99.90      -99.90      -99.90      -99.90      -99.90      -99.90      -99.90    
       -99.90      -99.90      -99.90      -99.90      -99.90      -99.90      -99.90      -99.90      -99.90      -99.90    
       -99.90      -99.90      -99.90      -99.90      -99.90      -99.90      -99.90      -99.90      -99.90      -99.90    
  37   -99.90      -99.90      -99.90      -99.90      -99.90      -99.90      -99.90      -99.90      -99.90      -99.90    
       -99.90      -99.90      -99.90      -99.90      -99.90      -99.90      -99.90      -99.90      -99.90      -99.90    
       -99.90      -99.90      -99.90      -99.90      -99.90      -99.90      -99.90      -99.90      -99.90      -99.90    
       -99.90      -99.90      -99.90      -99.90      -99.90      -99.90      -99.90      -99.90      -99.90      -99.90    
  38   -99.90      -99.90      -99.90      -99.90      -99.90      -99.90      -99.90      -99.90      -99.90      -99.90    
       -99.90      -99.90      -99.90      -99.90      -99.90      -99.90      -99.90      -99.90      -99.90      -99.90    
       -99.90      -99.90      -99.90      -99.90      -99.90      -99.90      -99.90      -99.90      -99.90      -99.90    
       -99.90      -99.90      -99.90      -99.90      -99.90      -99.90      -99.90      -99.90      -99.90      -99.90    
  39   -99.90      -99.90      -99.90      -99.90      -99.90      -99.90      -99.90      -99.90      -99.90      -99.90    
       -99.90      -99.90      -99.90      -99.90      -99.90      -99.90      -99.90      -99.90      -99.90      -99.90    
       -99.90      -99.90      -99.90      -99.90      -99.90      -99.90      -99.90      -99.90      -99.90      -99.90    
       -99.90      -99.90      -99.90      -99.90      -99.90      -99.90      -99.90      -99.90      -99.90      -99.90    
  40   -99.90      -99.90      -99.90      -99.90      -99.90      -99.90      -99.90      -99.90      -99.90      -99.90    
       -99.90      -99.90      -99.90      -99.90      -99.90      -99.90      -99.90      -99.90      -99.90      -99.90    
       -99.90      -99.90      -99.90      -99.90      -99.90      -99.90      -99.90      -99.90      -99.90      -99.90    
       -99.90      -99.90      -99.90      -99.90      -99.90      -99.90      -99.90      -99.90      -99.90      -99.90    
1
              HEAD IN LAYER   3 AT END OF TIME STEP  17 IN STRESS PERIOD    3
  ---------------------------------------------------------------------------

            1           2           3           4           5           6           7           8           9          10
           11          12          13          14          15          16          17          18          19          20
           21          22          23          24          25          26          27          28          29          30
           31          32          33          34          35          36          37          38          39          40
 ........................................................................................................................
   1   -99.90      -99.90      -99.90      -99.90      -99.90      -99.90      -99.90      -99.90      -99.90      -99.90    
       -99.90      -99.90      -99.90      -99.90      -99.90      -99.90      -99.90      -99.90      -99.90      -99.90    
       -99.90      -99.90      -99.90      -99.90      -99.90      -99.90      -99.90      -99.90      -99.90      -99.90    
       -99.90      -99.90      -99.90      -99.90      -99.90      -99.90      -99.90      -99.90      -99.90      -99.90    
   2   -99.90      -99.90      -99.90      -99.90      -99.90      -99.90      -99.90      -99.90      -99.90      -99.90    
       -99.90      -99.90      -99.90      -99.90      -99.90      -99.90      -99.90      -99.90      -99.90      -99.90    
       -99.90      -99.90      -99.90      -99.90      -99.90      -99.90      -99.90      -99.90      -99.90      -99.90    
       -99.90      -99.90      -99.90      -99.90      -99.90      -99.90      -99.90      -99.90      -99.90      -99.90    
   3   -99.90      -99.90      -99.90      -99.90      -99.90      -99.90      -99.90      -99.90      -99.90      -99.90    
       -99.90      -99.90      -99.90      -99.90      -99.90      -99.90      -99.90      -99.90      -99.90      -99.90    
       -99.90      -99.90      -99.90      -99.90      -99.90      -99.90      -99.90      -99.90      -99.90      -99.90    
       -99.90      -99.90      -99.90      -99.90      -99.90      -99.90      -99.90      -99.90      -99.90      -99.90    
   4   -99.90      -99.90      -99.90      -99.90      -99.90      -99.90      -99.90      -99.90      -99.90      -99.90    
       -99.90      -99.90      -99.90      -99.90      -99.90      -99.90      -99.90      -99.90      -99.90      -99.90    
       -99.90      -99.90      -99.90      -99.90      -99.90      -99.90      -99.90      -99.90      -99.90      -99.90    
       -99.90      -99.90      -99.90      -99.90      -99.90      -99.90      -99.90      -99.90      -99.90      -99.90    
   5   -99.90      -99.90      -99.90      -99.90      -99.90      -99.90      -99.90      -99.90      -99.90      -99.90    
       -99.90      -99.90      -99.90      -99.90      -99.90      -99.90      -99.90      -99.90      -99.90      -99.90    
       -99.90      -99.90      -99.90      -99.90      -99.90      -99.90      -99.90      -99.90      -99.90      -99.90    
       -99.90      -99.90      -99.90      -99.90      -99.90      -99.90      -99.90      -99.90      -99.90      -99.90    
   6   -99.90      -99.90      -99.90      -99.90      -99.90      -99.90      -99.90      -99.90      -99.90      -99.90    
       -99.90      -99.90      -99.90      -99.90      -99.90      -99.90      -99.90      -99.90      -99.90      -99.90    
       -99.90      -99.90      -99.90      -99.90      -99.90      -99.90      -99.90      -99.90      -99.90      -99.90    
       -99.90      -99.90      -99.90      -99.90      -99.90      -99.90      -99.90      -99.90      -99.90      -99.90    
   7   -99.90      -99.90      -99.90      -99.90      -99.90      -99.90      -99.90      -99.90      -99.90      -99.90    
       -99.90      -99.90      -99.90      -99.90      -99.90      -99.90      -99.90      -99.90      -99.90      -99.90    
       -99.90      -99.90      -99.90      -99.90      -99.90      -99.90      -99.90      -99.90      -99.90      -99.90    
       -99.90      -99.90      -99.90      -99.90      -99.90      -99.90      -99.90      -99.90      -99.90      -99.90    
   8   -99.90      -99.90      -99.90      -99.90      -99.90      -99.90      -99.90      -99.90      -99.90      -99.90    
       -99.90      -99.90      -99.90      -99.90      -99.90      -99.90      -99.90      -99.90      -99.90      -99.90    
       -99.90      -99.90      -99.90      -99.90      -99.90      -99.90      -99.90      -99.90      -99.90      -99.90    
       -99.90      -99.90      -99.90      -99.90      -99.90      -99.90      -99.90      -99.90      -99.90      -99.90    
   9   -99.90      -99.90      -99.90      -99.90      -99.90      -99.90      -99.90      -99.90      -99.90      -99.90    
       -99.90      -99.90      -99.90      -99.90      -99.90      -99.90      -99.90      -99.90      -99.90      -99.90    
       -99.90      -99.90      -99.90      -99.90      -99.90      -99.90      -99.90      -99.90      -99.90      -99.90    
       -99.90      -99.90      -99.90      -99.90      -99.90      -99.90      -99.90      -99.90      -99.90      -99.90    
  10   -99.90      -99.90      -99.90      -99.90      -99.90      -99.90      -99.90      -99.90      -99.90      -99.90    
       -99.90      -99.90      -99.90      -99.90      -99.90      -99.90      -99.90      -99.90      -99.90      -99.90    
       -99.90      -99.90      -99.90      -99.90      -99.90      -99.90      -99.90      -99.90      -99.90      -99.90    
       -99.90      -99.90      -99.90      -99.90      -99.90      -99.90      -99.90      -99.90      -99.90      -99.90    
  11   -99.90      -99.90      -99.90      -99.90      -99.90      -99.90      -99.90      -99.90      -99.90      -99.90    
       -99.90      -99.90      -99.90      -99.90      -99.90      -99.90      -99.90      -99.90      -99.90      -99.90    
       -99.90      -99.90      -99.90      -99.90      -99.90      -99.90      -99.90      -99.90      -99.90      -99.90    
       -99.90      -99.90      -99.90      -99.90      -99.90      -99.90      -99.90      -99.90      -99.90      -99.90    
  12   -99.90      -99.90      -99.90      -99.90      -99.90      -99.90      -99.90      -99.90      -99.90      -99.90    
       -99.90      -99.90      -99.90      -99.90      -99.90      -99.90      -99.90      -99.90      -99.90      -99.90    
       -99.90      -99.90      -99.90      -99.90      -99.90      -99.90      -99.90      -99.90      -99.90      -99.90    
       -99.90      -99.90      -99.90      -99.90      -99.90      -99.90      -99.90      -99.90      -99.90      -99.90    
  13   -99.90      -99.90      -99.90      -99.90      -99.90      -99.90      -99.90      -99.90      -99.90      -99.90    
       -99.90      -99.90      -99.90      -99.90      -99.90      -99.90      -99.90      -99.90      -99.90      -99.90    
       -99.90      -99.90      -99.90      -99.90      -99.90      -99.90      -99.90      -99.90      -99.90      -99.90    
       -99.90      -99.90      -99.90      -99.90      -99.90      -99.90      -99.90      -99.90      -99.90      -99.90    
  14   -99.90      -99.90      -99.90      -99.90      -99.90      -99.90      -99.90      -99.90      -99.90      -99.90    
       -99.90      -99.90      -99.90      -99.90      -99.90      -99.90      -99.90      -99.90      -99.90      -99.90    
       -99.90      -99.90      -99.90      -99.90      -99.90      -99.90      -99.90      -99.90      -99.90      -99.90    
       -99.90      -99.90      -99.90      -99.90      -99.90      -99.90      -99.90      -99.90      -99.90      -99.90    
  15   -99.90      -99.90      -99.90      -99.90      -99.90      -99.90      -99.90      -99.90      -99.90      -99.90    
       -99.90      -99.90      -99.90      -99.90      -99.90      -99.90      -99.90      -99.90      -99.90      -99.90    
       -99.90      -99.90      -99.90      -99.90      -99.90      -99.90      -99.90      -99.90      -99.90      -99.90    
       -99.90      -99.90      -99.90      -99.90      -99.90      -99.90      -99.90      -99.90      -99.90      -99.90    
  16   -99.90      -99.90      -99.90      -99.90      -99.90      -99.90      -99.90      -99.90      -99.90      -99.90    
       -99.90      -99.90      -99.90      -99.90      -99.90      -99.90      -99.90      -99.90      -99.90      -99.90    
       -99.90      -99.90      -99.90      -99.90      -99.90      -99.90      -99.90      -99.90      -99.90      -99.90    
       -99.90      -99.90      -99.90      -99.90      -99.90      -99.90      -99.90      -99.90      -99.90      -99.90    
  17   -99.90      -99.90      -99.90      -99.90      -99.90      -99.90      -99.90      -99.90      -99.90      -99.90    
       -99.90      -99.90      -99.90      -99.90      -99.90      -99.90      -99.90      -99.90      -99.90      -99.90    
       -99.90      -99.90      -99.90      -99.90      -99.90      -99.90      -99.90      -99.90      -99.90      -99.90    
       -99.90      -99.90      -99.90      -99.90      -99.90      -99.90      -99.90      -99.90      -99.90      -99.90    
  18   -99.90      -99.90      -99.90      -99.90      -99.90      -99.90      -99.90      -99.90      -99.90      -99.90    
       -99.90      -99.90      -99.90      -99.90      -99.90      -99.90      -99.90      -99.90      -99.90      -99.90    
       -99.90      -99.90      -99.90      -99.90      -99.90      -99.90      -99.90      -99.90      -99.90      -99.90    
       -99.90      -99.90      -99.90      -99.90      -99.90      -99.90      -99.90      -99.90      -99.90      -99.90    
  19   -99.90      -99.90      -99.90      -99.90      -99.90      -99.90      -99.90      -99.90      -99.90      -99.90    
       -99.90      -99.90      -99.90      -99.90      -99.90      -99.90      -99.90      -99.90      -99.90      -99.90    
       -99.90      -99.90      -99.90      -99.90      -99.90      -99.90      -99.90      -99.90      -99.90      -99.90    
       -99.90      -99.90      -99.90      -99.90      -99.90      -99.90      -99.90      -99.90      -99.90      -99.90    
  20   -99.90      -99.90      -99.90      -99.90      -99.90      -99.90      -99.90      -99.90      -99.90      -99.90    
       -99.90      -99.90      -99.90      -99.90      -99.90      -99.90      -99.90      -99.90      -99.90      -99.90    
       -99.90      -99.90      -99.90      -99.90      -99.90      -99.90      -99.90      -99.90      -99.90      -99.90    
       -99.90      -99.90      -99.90      -99.90      -99.90      -99.90      -99.90      -99.90      -99.90      -99.90    
  21   -99.90      -99.90      -99.90      -99.90      -99.90      -99.90      -99.90      -99.90      -99.90      -99.90    
       -99.90      -99.90      -99.90      -99.90      -99.90      -99.90      -99.90      -99.90      -99.90      -99.90    
       -99.90      -99.90      -99.90      -99.90      -99.90      -99.90      -99.90      -99.90      -99.90      -99.90    
       -99.90      -99.90      -99.90      -99.90      -99.90      -99.90      -99.90      -99.90      -99.90      -99.90    
  22   -99.90      -99.90      -99.90      -99.90      -99.90      -99.90      -99.90      -99.90      -99.90      -99.90    
       -99.90      -99.90      -99.90      -99.90      -99.90      -99.90      -99.90      -99.90      -99.90      -99.90    
       -99.90      -99.90      -99.90      -99.90      -99.90      -99.90      -99.90      -99.90      -99.90      -99.90    
       -99.90      -99.90      -99.90      -99.90      -99.90      -99.90      -99.90      -99.90      -99.90      -99.90    
  23   -99.90      -99.90      -99.90      -99.90      -99.90      -99.90      -99.90      -99.90      -99.90      -99.90    
       -99.90      -99.90      -99.90      -99.90      -99.90      -99.90      -99.90      -99.90      -99.90      -99.90    
       -99.90      -99.90      -99.90      -99.90      -99.90      -99.90      -99.90      -99.90      -99.90      -99.90    
       -99.90      -99.90      -99.90      -99.90      -99.90      -99.90      -99.90      -99.90      -99.90      -99.90    
  24   -99.90      -99.90      -99.90      -99.90      -99.90      -99.90      -99.90      -99.90      -99.90      -99.90    
       -99.90      -99.90      -99.90      -99.90      -99.90      -99.90      -99.90      -99.90      -99.90      -99.90    
       -99.90      -99.90      -99.90      -99.90      -99.90      -99.90      -99.90      -99.90      -99.90      -99.90    
       -99.90      -99.90      -99.90      -99.90      -99.90      -99.90      -99.90      -99.90      -99.90      -99.90    
  25   -99.90      -99.90      -99.90      -99.90      -99.90      -99.90      -99.90      -99.90      -99.90      -99.90    
       -99.90      -99.90      -99.90      -99.90      -99.90      -99.90      -99.90      -99.90      -99.90      -99.90    
       -99.90      -99.90      -99.90      -99.90      -99.90      -99.90      -99.90      -99.90      -99.90      -99.90    
       -99.90      -99.90      -99.90      -99.90      -99.90      -99.90      -99.90      -99.90      -99.90      -99.90    
  26   -99.90      -99.90      -99.90      -99.90      -99.90      -99.90      -99.90      -99.90      -99.90      -99.90    
       -99.90      -99.90      -99.90      -99.90      -99.90      -99.90      -99.90      -99.90      -99.90      -99.90    
       -99.90      -99.90      -99.90      -99.90      -99.90      -99.90      -99.90      -99.90      -99.90      -99.90    
       -99.90      -99.90      -99.90      -99.90      -99.90      -99.90      -99.90      -99.90      -99.90      -99.90    
  27   -99.90      -99.90      -99.90      -99.90      -99.90      -99.90      -99.90      -99.90      -99.90      -99.90    
       -99.90      -99.90      -99.90      -99.90      -99.90      -99.90      -99.90      -99.90      -99.90      -99.90    
       -99.90      -99.90      -99.90      -99.90      -99.90      -99.90      -99.90      -99.90      -99.90      -99.90    
       -99.90      -99.90      -99.90      -99.90      -99.90      -99.90      -99.90      -99.90      -99.90      -99.90    
  28   -99.90      -99.90      -99.90      -99.90      -99.90      -99.90      -99.90      -99.90      -99.90      -99.90    
       -99.90      -99.90      -99.90      -99.90      -99.90      -99.90      -99.90      -99.90      -99.90      -99.90    
       -99.90      -99.90      -99.90      -99.90      -99.90      -99.90      -99.90      -99.90      -99.90      -99.90    
       -99.90      -99.90      -99.90      -99.90      -99.90      -99.90      -99.90      -99.90      -99.90      -99.90    
  29   -99.90      -99.90      -99.90      -99.90      -99.90      -99.90      -99.90      -99.90      -99.90      -99.90    
       -99.90      -99.90      -99.90      -99.90      -99.90      -99.90      -99.90      -99.90      -99.90      -99.90    
       -99.90      -99.90      -99.90      -99.90      -99.90      -99.90      -99.90      -99.90      -99.90      -99.90    
       -99.90      -99.90      -99.90      -99.90      -99.90      -99.90      -99.90      -99.90      -99.90      -99.90    
  30   -99.90      -99.90      -99.90      -99.90      -99.90      -99.90      -99.90      -99.90      -99.90      -99.90    
       -99.90      -99.90      -99.90      -99.90      -99.90      -99.90      -99.90      -99.90      -99.90      -99.90    
       -99.90      -99.90      -99.90      -99.90      -99.90      -99.90      -99.90      -99.90      -99.90      -99.90    
       -99.90      -99.90      -99.90      -99.90      -99.90      -99.90      -99.90      -99.90      -99.90      -99.90    
  31   -99.90      -99.90      -99.90      -99.90      -99.90      -99.90      -99.90      -99.90      -99.90      -99.90    
       -99.90      -99.90      -99.90      -99.90      -99.90      -99.90      -99.90      -99.90      -99.90      -99.90    
       -99.90      -99.90      -99.90      -99.90      -99.90      -99.90      -99.90      -99.90      -99.90      -99.90    
       -99.90      -99.90      -99.90      -99.90      -99.90      -99.90      -99.90      -99.90      -99.90      -99.90    
  32   -99.90      -99.90      -99.90      -99.90      -99.90      -99.90      -99.90      -99.90      -99.90      -99.90    
       -99.90      -99.90      -99.90      -99.90      -99.90      -99.90      -99.90      -99.90      -99.90      -99.90    
       -99.90      -99.90      -99.90      -99.90      -99.90      -99.90      -99.90      -99.90      -99.90      -99.90    
       -99.90      -99.90      -99.90      -99.90      -99.90      -99.90      -99.90      -99.90      -99.90      -99.90    
  33   -99.90      -99.90      -99.90      -99.90      -99.90      -99.90      -99.90      -99.90      -99.90      -99.90    
       -99.90      -99.90      -99.90      -99.90      -99.90      -99.90      -99.90      -99.90      -99.90      -99.90    
       -99.90      -99.90      -99.90      -99.90      -99.90      -99.90      -99.90      -99.90      -99.90      -99.90    
       -99.90      -99.90      -99.90      -99.90      -99.90      -99.90      -99.90      -99.90      -99.90      -99.90    
  34   -99.90      -99.90      -99.90      -99.90      -99.90      -99.90      -99.90      -99.90      -99.90      -99.90    
       -99.90      -99.90      -99.90      -99.90      -99.90      -99.90      -99.90      -99.90      -99.90      -99.90    
       -99.90      -99.90      -99.90      -99.90      -99.90      -99.90      -99.90      -99.90      -99.90      -99.90    
       -99.90      -99.90      -99.90      -99.90      -99.90      -99.90      -99.90      -99.90      -99.90      -99.90    
  35   -99.90      -99.90      -99.90      -99.90      -99.90      -99.90      -99.90      -99.90      -99.90      -99.90    
       -99.90      -99.90      -99.90      -99.90      -99.90      -99.90      -99.90      -99.90      -99.90      -99.90    
       -99.90      -99.90      -99.90      -99.90      -99.90      -99.90      -99.90      -99.90      -99.90      -99.90    
       -99.90      -99.90      -99.90      -99.90      -99.90      -99.90      -99.90      -99.90      -99.90      -99.90    
  36   -99.90      -99.90      -99.90      -99.90      -99.90      -99.90      -99.90      -99.90      -99.90      -99.90    
       -99.90      -99.90      -99.90      -99.90      -99.90      -99.90      -99.90      -99.90      -99.90      -99.90    
       -99.90      -99.90      -99.90      -99.90      -99.90      -99.90      -99.90      -99.90      -99.90      -99.90    
       -99.90      -99.90      -99.90      -99.90      -99.90      -99.90      -99.90      -99.90      -99.90      -99.90    
  37   -99.90      -99.90      -99.90      -99.90      -99.90      -99.90      -99.90      -99.90      -99.90      -99.90    
       -99.90      -99.90      -99.90      -99.90      -99.90      -99.90      -99.90      -99.90      -99.90      -99.90    
       -99.90      -99.90      -99.90      -99.90      -99.90      -99.90      -99.90      -99.90      -99.90      -99.90    
       -99.90      -99.90      -99.90      -99.90      -99.90      -99.90      -99.90      -99.90      -99.90      -99.90    
  38   -99.90      -99.90      -99.90      -99.90      -99.90      -99.90      -99.90      -99.90      -99.90      -99.90    
       -99.90      -99.90      -99.90      -99.90      -99.90      -99.90      -99.90      -99.90      -99.90      -99.90    
       -99.90      -99.90      -99.90      -99.90      -99.90      -99.90      -99.90      -99.90      -99.90      -99.90    
       -99.90      -99.90      -99.90      -99.90      -99.90      -99.90      -99.90      -99.90      -99.90      -99.90    
  39   -99.90      -99.90      -99.90      -99.90      -99.90      -99.90      -99.90      -99.90      -99.90      -99.90    
       -99.90      -99.90      -99.90      -99.90      -99.90      -99.90      -99.90      -99.90      -99.90      -99.90    
       -99.90      -99.90      -99.90      -99.90      -99.90      -99.90      -99.90      -99.90      -99.90      -99.90    
       -99.90      -99.90      -99.90      -99.90      -99.90      -99.90      -99.90      -99.90      -99.90      -99.90    
  40   -99.90      -99.90      -99.90      -99.90      -99.90      -99.90      -99.90      -99.90      -99.90      -99.90    
       -99.90      -99.90      -99.90      -99.90      -99.90      -99.90      -99.90      -99.90      -99.90      -99.90    
       -99.90      -99.90      -99.90      -99.90      -99.90      -99.90      -99.90      -99.90      -99.90      -99.90    
       -99.90      -99.90      -99.90      -99.90      -99.90      -99.90      -99.90      -99.90      -99.90      -99.90    
1
              HEAD IN LAYER   4 AT END OF TIME STEP  17 IN STRESS PERIOD    3
  ---------------------------------------------------------------------------

            1           2           3           4           5           6           7           8           9          10
           11          12          13          14          15          16          17          18          19          20
           21          22          23          24          25          26          27          28          29          30
           31          32          33          34          35          36          37          38          39          40
 ........................................................................................................................
   1    54.88       53.55      -99.90      -99.90      -99.90      -99.90      -99.90      -99.90      -99.90      -99.90    
       -99.90      -99.90      -99.90      -99.90      -99.90      -99.90      -99.90      -99.90      -99.90      -99.90    
       -99.90      -99.90      -99.90      -99.90      -99.90      -99.90      -99.90      -99.90      -99.90      -99.90    
       -99.90      -99.90      -99.90      -99.90      -99.90      -99.90      -99.90      -99.90      -99.90      -99.90    
   2    53.55       52.40      -99.90      -99.90      -99.90      -99.90      -99.90      -99.90      -99.90      -99.90    
       -99.90      -99.90      -99.90      -99.90      -99.90      -99.90      -99.90      -99.90      -99.90      -99.90    
       -99.90      -99.90      -99.90      -99.90      -99.90      -99.90      -99.90      -99.90      -99.90      -99.90    
       -99.90      -99.90      -99.90      -99.90      -99.90      -99.90      -99.90      -99.90      -99.90      -99.90    
   3   -99.90      -99.90      -99.90      -99.90      -99.90      -99.90      -99.90      -99.90      -99.90      -99.90    
       -99.90      -99.90      -99.90      -99.90      -99.90      -99.90      -99.90      -99.90      -99.90      -99.90    
       -99.90      -99.90      -99.90      -99.90      -99.90      -99.90      -99.90      -99.90      -99.90      -99.90    
       -99.90      -99.90      -99.90      -99.90      -99.90      -99.90      -99.90      -99.90      -99.90      -99.90    
   4   -99.90      -99.90      -99.90      -99.90      -99.90      -99.90      -99.90      -99.90      -99.90      -99.90    
       -99.90      -99.90      -99.90      -99.90      -99.90      -99.90      -99.90      -99.90      -99.90      -99.90    
       -99.90      -99.90      -99.90      -99.90      -99.90      -99.90      -99.90      -99.90      -99.90      -99.90    
       -99.90      -99.90      -99.90      -99.90      -99.90      -99.90      -99.90      -99.90      -99.90      -99.90    
   5   -99.90      -99.90      -99.90      -99.90      -99.90      -99.90      -99.90      -99.90      -99.90      -99.90    
       -99.90      -99.90      -99.90      -99.90      -99.90      -99.90      -99.90      -99.90      -99.90      -99.90    
       -99.90      -99.90      -99.90      -99.90      -99.90      -99.90      -99.90      -99.90      -99.90      -99.90    
       -99.90      -99.90      -99.90      -99.90      -99.90      -99.90      -99.90      -99.90      -99.90      -99.90    
   6   -99.90      -99.90      -99.90      -99.90      -99.90      -99.90      -99.90      -99.90      -99.90      -99.90    
       -99.90      -99.90      -99.90      -99.90      -99.90      -99.90      -99.90      -99.90      -99.90      -99.90    
       -99.90      -99.90      -99.90      -99.90      -99.90      -99.90      -99.90      -99.90      -99.90      -99.90    
       -99.90      -99.90      -99.90      -99.90      -99.90      -99.90      -99.90      -99.90      -99.90      -99.90    
   7   -99.90      -99.90      -99.90      -99.90      -99.90      -99.90      -99.90      -99.90      -99.90      -99.90    
       -99.90      -99.90      -99.90      -99.90      -99.90      -99.90      -99.90      -99.90      -99.90      -99.90    
       -99.90      -99.90      -99.90      -99.90      -99.90      -99.90      -99.90      -99.90      -99.90      -99.90    
       -99.90      -99.90      -99.90      -99.90      -99.90      -99.90      -99.90      -99.90      -99.90      -99.90    
   8   -99.90      -99.90      -99.90      -99.90      -99.90      -99.90      -99.90      -99.90      -99.90      -99.90    
       -99.90      -99.90      -99.90      -99.90      -99.90      -99.90      -99.90      -99.90      -99.90      -99.90    
       -99.90      -99.90      -99.90      -99.90      -99.90      -99.90      -99.90      -99.90      -99.90      -99.90    
       -99.90      -99.90      -99.90      -99.90      -99.90      -99.90      -99.90      -99.90      -99.90      -99.90    
   9   -99.90      -99.90      -99.90      -99.90      -99.90      -99.90      -99.90      -99.90      -99.90      -99.90    
       -99.90      -99.90      -99.90      -99.90      -99.90      -99.90      -99.90      -99.90      -99.90      -99.90    
       -99.90      -99.90      -99.90      -99.90      -99.90      -99.90      -99.90      -99.90      -99.90      -99.90    
       -99.90      -99.90      -99.90      -99.90      -99.90      -99.90      -99.90      -99.90      -99.90      -99.90    
  10   -99.90      -99.90      -99.90      -99.90      -99.90      -99.90      -99.90      -99.90      -99.90      -99.90    
       -99.90      -99.90      -99.90      -99.90      -99.90      -99.90      -99.90      -99.90      -99.90      -99.90    
       -99.90      -99.90      -99.90      -99.90      -99.90      -99.90      -99.90      -99.90      -99.90      -99.90    
       -99.90      -99.90      -99.90      -99.90      -99.90      -99.90      -99.90      -99.90      -99.90      -99.90    
  11   -99.90      -99.90      -99.90      -99.90      -99.90      -99.90      -99.90      -99.90      -99.90      -99.90    
       -99.90      -99.90      -99.90      -99.90      -99.90      -99.90      -99.90      -99.90      -99.90      -99.90    
       -99.90      -99.90      -99.90      -99.90      -99.90      -99.90      -99.90      -99.90      -99.90      -99.90    
       -99.90      -99.90      -99.90      -99.90      -99.90      -99.90      -99.90      -99.90      -99.90      -99.90    
  12   -99.90      -99.90      -99.90      -99.90      -99.90      -99.90      -99.90      -99.90      -99.90      -99.90    
       -99.90      -99.90      -99.90      -99.90      -99.90      -99.90      -99.90      -99.90      -99.90      -99.90    
       -99.90      -99.90      -99.90      -99.90      -99.90      -99.90      -99.90      -99.90      -99.90      -99.90    
       -99.90      -99.90      -99.90      -99.90      -99.90      -99.90      -99.90      -99.90      -99.90      -99.90    
  13   -99.90      -99.90      -99.90      -99.90      -99.90      -99.90      -99.90      -99.90      -99.90      -99.90    
       -99.90      -99.90      -99.90      -99.90      -99.90      -99.90      -99.90      -99.90      -99.90      -99.90    
       -99.90      -99.90      -99.90      -99.90      -99.90      -99.90      -99.90      -99.90      -99.90      -99.90    
       -99.90      -99.90      -99.90      -99.90      -99.90      -99.90      -99.90      -99.90      -99.90      -99.90    
  14   -99.90      -99.90      -99.90      -99.90      -99.90      -99.90      -99.90      -99.90      -99.90      -99.90    
       -99.90      -99.90      -99.90      -99.90      -99.90      -99.90      -99.90      -99.90      -99.90      -99.90    
       -99.90      -99.90      -99.90      -99.90      -99.90      -99.90      -99.90      -99.90      -99.90      -99.90    
       -99.90      -99.90      -99.90      -99.90      -99.90      -99.90      -99.90      -99.90      -99.90      -99.90    
  15   -99.90      -99.90      -99.90      -99.90      -99.90      -99.90      -99.90      -99.90      -99.90      -99.90    
       -99.90      -99.90      -99.90      -99.90      -99.90      -99.90      -99.90      -99.90      -99.90      -99.90    
       -99.90      -99.90      -99.90      -99.90      -99.90      -99.90      -99.90      -99.90      -99.90      -99.90    
       -99.90      -99.90      -99.90      -99.90      -99.90      -99.90      -99.90      -99.90      -99.90      -99.90    
  16   -99.90      -99.90      -99.90      -99.90      -99.90      -99.90      -99.90      -99.90      -99.90      -99.90    
       -99.90      -99.90      -99.90      -99.90      -99.90      -99.90      -99.90      -99.90      -99.90      -99.90    
       -99.90      -99.90      -99.90      -99.90      -99.90      -99.90      -99.90      -99.90      -99.90      -99.90    
       -99.90      -99.90      -99.90      -99.90      -99.90      -99.90      -99.90      -99.90      -99.90      -99.90    
  17   -99.90      -99.90      -99.90      -99.90      -99.90      -99.90      -99.90      -99.90      -99.90      -99.90    
       -99.90      -99.90      -99.90      -99.90      -99.90      -99.90      -99.90      -99.90      -99.90      -99.90    
       -99.90      -99.90      -99.90      -99.90      -99.90      -99.90      -99.90      -99.90      -99.90      -99.90    
       -99.90      -99.90      -99.90      -99.90      -99.90      -99.90      -99.90      -99.90      -99.90      -99.90    
  18   -99.90      -99.90      -99.90      -99.90      -99.90      -99.90      -99.90      -99.90      -99.90      -99.90    
       -99.90      -99.90      -99.90      -99.90      -99.90      -99.90      -99.90      -99.90      -99.90      -99.90    
       -99.90      -99.90      -99.90      -99.90      -99.90      -99.90      -99.90      -99.90      -99.90      -99.90    
       -99.90      -99.90      -99.90      -99.90      -99.90      -99.90      -99.90      -99.90      -99.90      -99.90    
  19   -99.90      -99.90      -99.90      -99.90      -99.90      -99.90      -99.90      -99.90      -99.90      -99.90    
       -99.90      -99.90      -99.90      -99.90      -99.90      -99.90      -99.90      -99.90      -99.90      -99.90    
       -99.90      -99.90      -99.90      -99.90      -99.90      -99.90      -99.90      -99.90      -99.90      -99.90    
       -99.90      -99.90      -99.90      -99.90      -99.90      -99.90      -99.90      -99.90      -99.90      -99.90    
  20   -99.90      -99.90      -99.90      -99.90      -99.90      -99.90      -99.90      -99.90      -99.90      -99.90    
       -99.90      -99.90      -99.90      -99.90      -99.90      -99.90      -99.90      -99.90      -99.90      -99.90    
       -99.90      -99.90      -99.90      -99.90      -99.90      -99.90      -99.90      -99.90      -99.90      -99.90    
       -99.90      -99.90      -99.90      -99.90      -99.90      -99.90      -99.90      -99.90      -99.90      -99.90    
  21   -99.90      -99.90      -99.90      -99.90      -99.90      -99.90      -99.90      -99.90      -99.90      -99.90    
       -99.90      -99.90      -99.90      -99.90      -99.90      -99.90      -99.90      -99.90      -99.90      -99.90    
       -99.90      -99.90      -99.90      -99.90      -99.90      -99.90      -99.90      -99.90      -99.90      -99.90    
       -99.90      -99.90      -99.90      -99.90      -99.90      -99.90      -99.90      -99.90      -99.90      -99.90    
  22   -99.90      -99.90      -99.90      -99.90      -99.90      -99.90      -99.90      -99.90      -99.90      -99.90    
       -99.90      -99.90      -99.90      -99.90      -99.90      -99.90      -99.90      -99.90      -99.90      -99.90    
       -99.90      -99.90      -99.90      -99.90      -99.90      -99.90      -99.90      -99.90      -99.90      -99.90    
       -99.90      -99.90      -99.90      -99.90      -99.90      -99.90      -99.90      -99.90      -99.90      -99.90    
  23   -99.90      -99.90      -99.90      -99.90      -99.90      -99.90      -99.90      -99.90      -99.90      -99.90    
       -99.90      -99.90      -99.90      -99.90      -99.90      -99.90      -99.90      -99.90      -99.90      -99.90    
       -99.90      -99.90      -99.90      -99.90      -99.90      -99.90      -99.90      -99.90      -99.90      -99.90    
       -99.90      -99.90      -99.90      -99.90      -99.90      -99.90      -99.90      -99.90      -99.90      -99.90    
  24   -99.90      -99.90      -99.90      -99.90      -99.90      -99.90      -99.90      -99.90      -99.90      -99.90    
       -99.90      -99.90      -99.90      -99.90      -99.90      -99.90      -99.90      -99.90      -99.90      -99.90    
       -99.90      -99.90      -99.90      -99.90      -99.90      -99.90      -99.90      -99.90      -99.90      -99.90    
       -99.90      -99.90      -99.90      -99.90      -99.90      -99.90      -99.90      -99.90      -99.90      -99.90    
  25   -99.90      -99.90      -99.90      -99.90      -99.90      -99.90      -99.90      -99.90      -99.90      -99.90    
       -99.90      -99.90      -99.90      -99.90      -99.90      -99.90      -99.90      -99.90      -99.90      -99.90    
       -99.90      -99.90      -99.90      -99.90      -99.90      -99.90      -99.90      -99.90      -99.90      -99.90    
       -99.90      -99.90      -99.90      -99.90      -99.90      -99.90      -99.90      -99.90      -99.90      -99.90    
  26   -99.90      -99.90      -99.90      -99.90      -99.90      -99.90      -99.90      -99.90      -99.90      -99.90    
       -99.90      -99.90      -99.90      -99.90      -99.90      -99.90      -99.90      -99.90      -99.90      -99.90    
       -99.90      -99.90      -99.90      -99.90      -99.90      -99.90      -99.90      -99.90      -99.90      -99.90    
       -99.90      -99.90      -99.90      -99.90      -99.90      -99.90      -99.90      -99.90      -99.90      -99.90    
  27   -99.90      -99.90      -99.90      -99.90      -99.90      -99.90      -99.90      -99.90      -99.90      -99.90    
       -99.90      -99.90      -99.90      -99.90      -99.90      -99.90      -99.90      -99.90      -99.90      -99.90    
       -99.90      -99.90      -99.90      -99.90      -99.90      -99.90      -99.90      -99.90      -99.90      -99.90    
       -99.90      -99.90      -99.90      -99.90      -99.90      -99.90      -99.90      -99.90      -99.90      -99.90    
  28   -99.90      -99.90      -99.90      -99.90      -99.90      -99.90      -99.90      -99.90      -99.90      -99.90    
       -99.90      -99.90      -99.90      -99.90      -99.90      -99.90      -99.90      -99.90      -99.90      -99.90    
       -99.90      -99.90      -99.90      -99.90      -99.90      -99.90      -99.90      -99.90      -99.90      -99.90    
       -99.90      -99.90      -99.90      -99.90      -99.90      -99.90      -99.90      -99.90      -99.90      -99.90    
  29   -99.90      -99.90      -99.90      -99.90      -99.90      -99.90      -99.90      -99.90      -99.90      -99.90    
       -99.90      -99.90      -99.90      -99.90      -99.90      -99.90      -99.90      -99.90      -99.90      -99.90    
       -99.90      -99.90      -99.90      -99.90      -99.90      -99.90      -99.90      -99.90      -99.90      -99.90    
       -99.90      -99.90      -99.90      -99.90      -99.90      -99.90      -99.90      -99.90      -99.90      -99.90    
  30   -99.90      -99.90      -99.90      -99.90      -99.90      -99.90      -99.90      -99.90      -99.90      -99.90    
       -99.90      -99.90      -99.90      -99.90      -99.90      -99.90      -99.90      -99.90      -99.90      -99.90    
       -99.90      -99.90      -99.90      -99.90      -99.90      -99.90      -99.90      -99.90      -99.90      -99.90    
       -99.90      -99.90      -99.90      -99.90      -99.90      -99.90      -99.90      -99.90      -99.90      -99.90    
  31   -99.90      -99.90      -99.90      -99.90      -99.90      -99.90      -99.90      -99.90      -99.90      -99.90    
       -99.90      -99.90      -99.90      -99.90      -99.90      -99.90      -99.90      -99.90      -99.90      -99.90    
       -99.90      -99.90      -99.90      -99.90      -99.90      -99.90      -99.90      -99.90      -99.90      -99.90    
       -99.90      -99.90      -99.90      -99.90      -99.90      -99.90      -99.90      -99.90      -99.90      -99.90    
  32   -99.90      -99.90      -99.90      -99.90      -99.90      -99.90      -99.90      -99.90      -99.90      -99.90    
       -99.90      -99.90      -99.90      -99.90      -99.90      -99.90      -99.90      -99.90      -99.90      -99.90    
       -99.90      -99.90      -99.90      -99.90      -99.90      -99.90      -99.90      -99.90      -99.90      -99.90    
       -99.90      -99.90      -99.90      -99.90      -99.90      -99.90      -99.90      -99.90      -99.90      -99.90    
  33   -99.90      -99.90      -99.90      -99.90      -99.90      -99.90      -99.90      -99.90      -99.90      -99.90    
       -99.90      -99.90      -99.90      -99.90      -99.90      -99.90      -99.90      -99.90      -99.90      -99.90    
       -99.90      -99.90      -99.90      -99.90      -99.90      -99.90      -99.90      -99.90      -99.90      -99.90    
       -99.90      -99.90      -99.90      -99.90      -99.90      -99.90      -99.90      -99.90      -99.90      -99.90    
  34   -99.90      -99.90      -99.90      -99.90      -99.90      -99.90      -99.90      -99.90      -99.90      -99.90    
       -99.90      -99.90      -99.90      -99.90      -99.90      -99.90      -99.90      -99.90      -99.90      -99.90    
       -99.90      -99.90      -99.90      -99.90      -99.90      -99.90      -99.90      -99.90      -99.90      -99.90    
       -99.90      -99.90      -99.90      -99.90      -99.90      -99.90      -99.90      -99.90      -99.90      -99.90    
  35   -99.90      -99.90      -99.90      -99.90      -99.90      -99.90      -99.90      -99.90      -99.90      -99.90    
       -99.90      -99.90      -99.90      -99.90      -99.90      -99.90      -99.90      -99.90      -99.90      -99.90    
       -99.90      -99.90      -99.90      -99.90      -99.90      -99.90      -99.90      -99.90      -99.90      -99.90    
       -99.90      -99.90      -99.90      -99.90      -99.90      -99.90      -99.90      -99.90      -99.90      -99.90    
  36   -99.90      -99.90      -99.90      -99.90      -99.90      -99.90      -99.90      -99.90      -99.90      -99.90    
       -99.90      -99.90      -99.90      -99.90      -99.90      -99.90      -99.90      -99.90      -99.90      -99.90    
       -99.90      -99.90      -99.90      -99.90      -99.90      -99.90      -99.90      -99.90      -99.90      -99.90    
       -99.90      -99.90      -99.90      -99.90      -99.90      -99.90      -99.90      -99.90      -99.90      -99.90    
  37   -99.90      -99.90      -99.90      -99.90      -99.90      -99.90      -99.90      -99.90      -99.90      -99.90    
       -99.90      -99.90      -99.90      -99.90      -99.90      -99.90      -99.90      -99.90      -99.90      -99.90    
       -99.90      -99.90      -99.90      -99.90      -99.90      -99.90      -99.90      -99.90      -99.90      -99.90    
       -99.90      -99.90      -99.90      -99.90      -99.90      -99.90      -99.90      -99.90      -99.90      -99.90    
  38   -99.90      -99.90      -99.90      -99.90      -99.90      -99.90      -99.90      -99.90      -99.90      -99.90    
       -99.90      -99.90      -99.90      -99.90      -99.90      -99.90      -99.90      -99.90      -99.90      -99.90    
       -99.90      -99.90      -99.90      -99.90      -99.90      -99.90      -99.90      -99.90      -99.90      -99.90    
       -99.90      -99.90      -99.90      -99.90      -99.90      -99.90      -99.90      -99.90      -99.90      -99.90    
  39   -99.90      -99.90      -99.90      -99.90      -99.90      -99.90      -99.90      -99.90      -99.90      -99.90    
       -99.90      -99.90      -99.90      -99.90      -99.90      -99.90      -99.90      -99.90      -99.90      -99.90    
       -99.90      -99.90      -99.90      -99.90      -99.90      -99.90      -99.90      -99.90      -99.90      -99.90    
       -99.90      -99.90      -99.90      -99.90      -99.90      -99.90      -99.90      -99.90      -99.90      -99.90    
  40   -99.90      -99.90      -99.90      -99.90      -99.90      -99.90      -99.90      -99.90      -99.90      -99.90    
       -99.90      -99.90      -99.90      -99.90      -99.90      -99.90      -99.90      -99.90      -99.90      -99.90    
       -99.90      -99.90      -99.90      -99.90      -99.90      -99.90      -99.90      -99.90      -99.90      -99.90    
       -99.90      -99.90      -99.90      -99.90      -99.90      -99.90      -99.90      -99.90      -99.90      -99.90    
1
              HEAD IN LAYER   5 AT END OF TIME STEP  17 IN STRESS PERIOD    3
  ---------------------------------------------------------------------------

            1           2           3           4           5           6           7           8           9          10
           11          12          13          14          15          16          17          18          19          20
           21          22          23          24          25          26          27          28          29          30
           31          32          33          34          35          36          37          38          39          40
 ........................................................................................................................
   1    53.95       52.54       46.76      -99.90      -99.90      -99.90      -99.90      -99.90      -99.90      -99.90    
       -99.90      -99.90      -99.90      -99.90      -99.90      -99.90      -99.90      -99.90      -99.90      -99.90    
       -99.90      -99.90      -99.90      -99.90      -99.90      -99.90      -99.90      -99.90      -99.90      -99.90    
       -99.90      -99.90      -99.90      -99.90      -99.90      -99.90      -99.90      -99.90      -99.90      -99.90    
   2    52.54       51.36       45.72      -99.90      -99.90      -99.90      -99.90      -99.90      -99.90      -99.90    
       -99.90      -99.90      -99.90      -99.90      -99.90      -99.90      -99.90      -99.90      -99.90      -99.90    
       -99.90      -99.90      -99.90      -99.90      -99.90      -99.90      -99.90      -99.90      -99.90      -99.90    
       -99.90      -99.90      -99.90      -99.90      -99.90      -99.90      -99.90      -99.90      -99.90      -99.90    
   3    46.76       45.72      -99.90      -99.90      -99.90      -99.90      -99.90      -99.90      -99.90      -99.90    
       -99.90      -99.90      -99.90      -99.90      -99.90      -99.90      -99.90      -99.90      -99.90      -99.90    
       -99.90      -99.90      -99.90      -99.90      -99.90      -99.90      -99.90      -99.90      -99.90      -99.90    
       -99.90      -99.90      -99.90      -99.90      -99.90      -99.90      -99.90      -99.90      -99.90      -99.90    
   4   -99.90      -99.90      -99.90      -99.90      -99.90      -99.90      -99.90      -99.90      -99.90      -99.90    
       -99.90      -99.90      -99.90      -99.90      -99.90      -99.90      -99.90      -99.90      -99.90      -99.90    
       -99.90      -99.90      -99.90      -99.90      -99.90      -99.90      -99.90      -99.90      -99.90      -99.90    
       -99.90      -99.90      -99.90      -99.90      -99.90      -99.90      -99.90      -99.90      -99.90      -99.90    
   5   -99.90      -99.90      -99.90      -99.90      -99.90      -99.90      -99.90      -99.90      -99.90      -99.90    
       -99.90      -99.90      -99.90      -99.90      -99.90      -99.90      -99.90      -99.90      -99.90      -99.90    
       -99.90      -99.90      -99.90      -99.90      -99.90      -99.90      -99.90      -99.90      -99.90      -99.90    
       -99.90      -99.90      -99.90      -99.90      -99.90      -99.90      -99.90      -99.90      -99.90      -99.90    
   6   -99.90      -99.90      -99.90      -99.90      -99.90      -99.90      -99.90      -99.90      -99.90      -99.90    
       -99.90      -99.90      -99.90      -99.90      -99.90      -99.90      -99.90      -99.90      -99.90      -99.90    
       -99.90      -99.90      -99.90      -99.90      -99.90      -99.90      -99.90      -99.90      -99.90      -99.90    
       -99.90      -99.90      -99.90      -99.90      -99.90      -99.90      -99.90      -99.90      -99.90      -99.90    
   7   -99.90      -99.90      -99.90      -99.90      -99.90      -99.90      -99.90      -99.90      -99.90      -99.90    
       -99.90      -99.90      -99.90      -99.90      -99.90      -99.90      -99.90      -99.90      -99.90      -99.90    
       -99.90      -99.90      -99.90      -99.90      -99.90      -99.90      -99.90      -99.90      -99.90      -99.90    
       -99.90      -99.90      -99.90      -99.90      -99.90      -99.90      -99.90      -99.90      -99.90      -99.90    
   8   -99.90      -99.90      -99.90      -99.90      -99.90      -99.90      -99.90      -99.90      -99.90      -99.90    
       -99.90      -99.90      -99.90      -99.90      -99.90      -99.90      -99.90      -99.90      -99.90      -99.90    
       -99.90      -99.90      -99.90      -99.90      -99.90      -99.90      -99.90      -99.90      -99.90      -99.90    
       -99.90      -99.90      -99.90      -99.90      -99.90      -99.90      -99.90      -99.90      -99.90      -99.90    
   9   -99.90      -99.90      -99.90      -99.90      -99.90      -99.90      -99.90      -99.90      -99.90      -99.90    
       -99.90      -99.90      -99.90      -99.90      -99.90      -99.90      -99.90      -99.90      -99.90      -99.90    
       -99.90      -99.90      -99.90      -99.90      -99.90      -99.90      -99.90      -99.90      -99.90      -99.90    
       -99.90      -99.90      -99.90      -99.90      -99.90      -99.90      -99.90      -99.90      -99.90      -99.90    
  10   -99.90      -99.90      -99.90      -99.90      -99.90      -99.90      -99.90      -99.90      -99.90      -99.90    
       -99.90      -99.90      -99.90      -99.90      -99.90      -99.90      -99.90      -99.90      -99.90      -99.90    
       -99.90      -99.90      -99.90      -99.90      -99.90      -99.90      -99.90      -99.90      -99.90      -99.90    
       -99.90      -99.90      -99.90      -99.90      -99.90      -99.90      -99.90      -99.90      -99.90      -99.90    
  11   -99.90      -99.90      -99.90      -99.90      -99.90      -99.90      -99.90      -99.90      -99.90      -99.90    
       -99.90      -99.90      -99.90      -99.90      -99.90      -99.90      -99.90      -99.90      -99.90      -99.90    
       -99.90      -99.90      -99.90      -99.90      -99.90      -99.90      -99.90      -99.90      -99.90      -99.90    
       -99.90      -99.90      -99.90      -99.90      -99.90      -99.90      -99.90      -99.90      -99.90      -99.90    
  12   -99.90      -99.90      -99.90      -99.90      -99.90      -99.90      -99.90      -99.90      -99.90      -99.90    
       -99.90      -99.90      -99.90      -99.90      -99.90      -99.90      -99.90      -99.90      -99.90      -99.90    
       -99.90      -99.90      -99.90      -99.90      -99.90      -99.90      -99.90      -99.90      -99.90      -99.90    
       -99.90      -99.90      -99.90      -99.90      -99.90      -99.90      -99.90      -99.90      -99.90      -99.90    
  13   -99.90      -99.90      -99.90      -99.90      -99.90      -99.90      -99.90      -99.90      -99.90      -99.90    
       -99.90      -99.90      -99.90      -99.90      -99.90      -99.90      -99.90      -99.90      -99.90      -99.90    
       -99.90      -99.90      -99.90      -99.90      -99.90      -99.90      -99.90      -99.90      -99.90      -99.90    
       -99.90      -99.90      -99.90      -99.90      -99.90      -99.90      -99.90      -99.90      -99.90      -99.90    
  14   -99.90      -99.90      -99.90      -99.90      -99.90      -99.90      -99.90      -99.90      -99.90      -99.90    
       -99.90      -99.90      -99.90      -99.90      -99.90      -99.90      -99.90      -99.90      -99.90      -99.90    
       -99.90      -99.90      -99.90      -99.90      -99.90      -99.90      -99.90      -99.90      -99.90      -99.90    
       -99.90      -99.90      -99.90      -99.90      -99.90      -99.90      -99.90      -99.90      -99.90      -99.90    
  15   -99.90      -99.90      -99.90      -99.90      -99.90      -99.90      -99.90      -99.90      -99.90      -99.90    
       -99.90      -99.90      -99.90      -99.90      -99.90      -99.90      -99.90      -99.90      -99.90      -99.90    
       -99.90      -99.90      -99.90      -99.90      -99.90      -99.90      -99.90      -99.90      -99.90      -99.90    
       -99.90      -99.90      -99.90      -99.90      -99.90      -99.90      -99.90      -99.90      -99.90      -99.90    
  16   -99.90      -99.90      -99.90      -99.90      -99.90      -99.90      -99.90      -99.90      -99.90      -99.90    
       -99.90      -99.90      -99.90      -99.90      -99.90      -99.90      -99.90      -99.90      -99.90      -99.90    
       -99.90      -99.90      -99.90      -99.90      -99.90      -99.90      -99.90      -99.90      -99.90      -99.90    
       -99.90      -99.90      -99.90      -99.90      -99.90      -99.90      -99.90      -99.90      -99.90      -99.90    
  17   -99.90      -99.90      -99.90      -99.90      -99.90      -99.90      -99.90      -99.90      -99.90      -99.90    
       -99.90      -99.90      -99.90      -99.90      -99.90      -99.90      -99.90      -99.90      -99.90      -99.90    
       -99.90      -99.90      -99.90      -99.90      -99.90      -99.90      -99.90      -99.90      -99.90      -99.90    
       -99.90      -99.90      -99.90      -99.90      -99.90      -99.90      -99.90      -99.90      -99.90      -99.90    
  18   -99.90      -99.90      -99.90      -99.90      -99.90      -99.90      -99.90      -99.90      -99.90      -99.90    
       -99.90      -99.90      -99.90      -99.90      -99.90      -99.90      -99.90      -99.90      -99.90      -99.90    
       -99.90      -99.90      -99.90      -99.90      -99.90      -99.90      -99.90      -99.90      -99.90      -99.90    
       -99.90      -99.90      -99.90      -99.90      -99.90      -99.90      -99.90      -99.90      -99.90      -99.90    
  19   -99.90      -99.90      -99.90      -99.90      -99.90      -99.90      -99.90      -99.90      -99.90      -99.90    
       -99.90      -99.90      -99.90      -99.90      -99.90      -99.90      -99.90      -99.90      -99.90      -99.90    
       -99.90      -99.90      -99.90      -99.90      -99.90      -99.90      -99.90      -99.90      -99.90      -99.90    
       -99.90      -99.90      -99.90      -99.90      -99.90      -99.90      -99.90      -99.90      -99.90      -99.90    
  20   -99.90      -99.90      -99.90      -99.90      -99.90      -99.90      -99.90      -99.90      -99.90      -99.90    
       -99.90      -99.90      -99.90      -99.90      -99.90      -99.90      -99.90      -99.90      -99.90      -99.90    
       -99.90      -99.90      -99.90      -99.90      -99.90      -99.90      -99.90      -99.90      -99.90      -99.90    
       -99.90      -99.90      -99.90      -99.90      -99.90      -99.90      -99.90      -99.90      -99.90      -99.90    
  21   -99.90      -99.90      -99.90      -99.90      -99.90      -99.90      -99.90      -99.90      -99.90      -99.90    
       -99.90      -99.90      -99.90      -99.90      -99.90      -99.90      -99.90      -99.90      -99.90      -99.90    
       -99.90      -99.90      -99.90      -99.90      -99.90      -99.90      -99.90      -99.90      -99.90      -99.90    
       -99.90      -99.90      -99.90      -99.90      -99.90      -99.90      -99.90      -99.90      -99.90      -99.90    
  22   -99.90      -99.90      -99.90      -99.90      -99.90      -99.90      -99.90      -99.90      -99.90      -99.90    
       -99.90      -99.90      -99.90      -99.90      -99.90      -99.90      -99.90      -99.90      -99.90      -99.90    
       -99.90      -99.90      -99.90      -99.90      -99.90      -99.90      -99.90      -99.90      -99.90      -99.90    
       -99.90      -99.90      -99.90      -99.90      -99.90      -99.90      -99.90      -99.90      -99.90      -99.90    
  23   -99.90      -99.90      -99.90      -99.90      -99.90      -99.90      -99.90      -99.90      -99.90      -99.90    
       -99.90      -99.90      -99.90      -99.90      -99.90      -99.90      -99.90      -99.90      -99.90      -99.90    
       -99.90      -99.90      -99.90      -99.90      -99.90      -99.90      -99.90      -99.90      -99.90      -99.90    
       -99.90      -99.90      -99.90      -99.90      -99.90      -99.90      -99.90      -99.90      -99.90      -99.90    
  24   -99.90      -99.90      -99.90      -99.90      -99.90      -99.90      -99.90      -99.90      -99.90      -99.90    
       -99.90      -99.90      -99.90      -99.90      -99.90      -99.90      -99.90      -99.90      -99.90      -99.90    
       -99.90      -99.90      -99.90      -99.90      -99.90      -99.90      -99.90      -99.90      -99.90      -99.90    
       -99.90      -99.90      -99.90      -99.90      -99.90      -99.90      -99.90      -99.90      -99.90      -99.90    
  25   -99.90      -99.90      -99.90      -99.90      -99.90      -99.90      -99.90      -99.90      -99.90      -99.90    
       -99.90      -99.90      -99.90      -99.90      -99.90      -99.90      -99.90      -99.90      -99.90      -99.90    
       -99.90      -99.90      -99.90      -99.90      -99.90      -99.90      -99.90      -99.90      -99.90      -99.90    
       -99.90      -99.90      -99.90      -99.90      -99.90      -99.90      -99.90      -99.90      -99.90      -99.90    
  26   -99.90      -99.90      -99.90      -99.90      -99.90      -99.90      -99.90      -99.90      -99.90      -99.90    
       -99.90      -99.90      -99.90      -99.90      -99.90      -99.90      -99.90      -99.90      -99.90      -99.90    
       -99.90      -99.90      -99.90      -99.90      -99.90      -99.90      -99.90      -99.90      -99.90      -99.90    
       -99.90      -99.90      -99.90      -99.90      -99.90      -99.90      -99.90      -99.90      -99.90      -99.90    
  27   -99.90      -99.90      -99.90      -99.90      -99.90      -99.90      -99.90      -99.90      -99.90      -99.90    
       -99.90      -99.90      -99.90      -99.90      -99.90      -99.90      -99.90      -99.90      -99.90      -99.90    
       -99.90      -99.90      -99.90      -99.90      -99.90      -99.90      -99.90      -99.90      -99.90      -99.90    
       -99.90      -99.90      -99.90      -99.90      -99.90      -99.90      -99.90      -99.90      -99.90      -99.90    
  28   -99.90      -99.90      -99.90      -99.90      -99.90      -99.90      -99.90      -99.90      -99.90      -99.90    
       -99.90      -99.90      -99.90      -99.90      -99.90      -99.90      -99.90      -99.90      -99.90      -99.90    
       -99.90      -99.90      -99.90      -99.90      -99.90      -99.90      -99.90      -99.90      -99.90      -99.90    
       -99.90      -99.90      -99.90      -99.90      -99.90      -99.90      -99.90      -99.90      -99.90      -99.90    
  29   -99.90      -99.90      -99.90      -99.90      -99.90      -99.90      -99.90      -99.90      -99.90      -99.90    
       -99.90      -99.90      -99.90      -99.90      -99.90      -99.90      -99.90      -99.90      -99.90      -99.90    
       -99.90      -99.90      -99.90      -99.90      -99.90      -99.90      -99.90      -99.90      -99.90      -99.90    
       -99.90      -99.90      -99.90      -99.90      -99.90      -99.90      -99.90      -99.90      -99.90      -99.90    
  30   -99.90      -99.90      -99.90      -99.90      -99.90      -99.90      -99.90      -99.90      -99.90      -99.90    
       -99.90      -99.90      -99.90      -99.90      -99.90      -99.90      -99.90      -99.90      -99.90      -99.90    
       -99.90      -99.90      -99.90      -99.90      -99.90      -99.90      -99.90      -99.90      -99.90      -99.90    
       -99.90      -99.90      -99.90      -99.90      -99.90      -99.90      -99.90      -99.90      -99.90      -99.90    
  31   -99.90      -99.90      -99.90      -99.90      -99.90      -99.90      -99.90      -99.90      -99.90      -99.90    
       -99.90      -99.90      -99.90      -99.90      -99.90      -99.90      -99.90      -99.90      -99.90      -99.90    
       -99.90      -99.90      -99.90      -99.90      -99.90      -99.90      -99.90      -99.90      -99.90      -99.90    
       -99.90      -99.90      -99.90      -99.90      -99.90      -99.90      -99.90      -99.90      -99.90      -99.90    
  32   -99.90      -99.90      -99.90      -99.90      -99.90      -99.90      -99.90      -99.90      -99.90      -99.90    
       -99.90      -99.90      -99.90      -99.90      -99.90      -99.90      -99.90      -99.90      -99.90      -99.90    
       -99.90      -99.90      -99.90      -99.90      -99.90      -99.90      -99.90      -99.90      -99.90      -99.90    
       -99.90      -99.90      -99.90      -99.90      -99.90      -99.90      -99.90      -99.90      -99.90      -99.90    
  33   -99.90      -99.90      -99.90      -99.90      -99.90      -99.90      -99.90      -99.90      -99.90      -99.90    
       -99.90      -99.90      -99.90      -99.90      -99.90      -99.90      -99.90      -99.90      -99.90      -99.90    
       -99.90      -99.90      -99.90      -99.90      -99.90      -99.90      -99.90      -99.90      -99.90      -99.90    
       -99.90      -99.90      -99.90      -99.90      -99.90      -99.90      -99.90      -99.90      -99.90      -99.90    
  34   -99.90      -99.90      -99.90      -99.90      -99.90      -99.90      -99.90      -99.90      -99.90      -99.90    
       -99.90      -99.90      -99.90      -99.90      -99.90      -99.90      -99.90      -99.90      -99.90      -99.90    
       -99.90      -99.90      -99.90      -99.90      -99.90      -99.90      -99.90      -99.90      -99.90      -99.90    
       -99.90      -99.90      -99.90      -99.90      -99.90      -99.90      -99.90      -99.90      -99.90      -99.90    
  35   -99.90      -99.90      -99.90      -99.90      -99.90      -99.90      -99.90      -99.90      -99.90      -99.90    
       -99.90      -99.90      -99.90      -99.90      -99.90      -99.90      -99.90      -99.90      -99.90      -99.90    
       -99.90      -99.90      -99.90      -99.90      -99.90      -99.90      -99.90      -99.90      -99.90      -99.90    
       -99.90      -99.90      -99.90      -99.90      -99.90      -99.90      -99.90      -99.90      -99.90      -99.90    
  36   -99.90      -99.90      -99.90      -99.90      -99.90      -99.90      -99.90      -99.90      -99.90      -99.90    
       -99.90      -99.90      -99.90      -99.90      -99.90      -99.90      -99.90      -99.90      -99.90      -99.90    
       -99.90      -99.90      -99.90      -99.90      -99.90      -99.90      -99.90      -99.90      -99.90      -99.90    
       -99.90      -99.90      -99.90      -99.90      -99.90      -99.90      -99.90      -99.90      -99.90      -99.90    
  37   -99.90      -99.90      -99.90      -99.90      -99.90      -99.90      -99.90      -99.90      -99.90      -99.90    
       -99.90      -99.90      -99.90      -99.90      -99.90      -99.90      -99.90      -99.90      -99.90      -99.90    
       -99.90      -99.90      -99.90      -99.90      -99.90      -99.90      -99.90      -99.90      -99.90      -99.90    
       -99.90      -99.90      -99.90      -99.90      -99.90      -99.90      -99.90      -99.90      -99.90      -99.90    
  38   -99.90      -99.90      -99.90      -99.90      -99.90      -99.90      -99.90      -99.90      -99.90      -99.90    
       -99.90      -99.90      -99.90      -99.90      -99.90      -99.90      -99.90      -99.90      -99.90      -99.90    
       -99.90      -99.90      -99.90      -99.90      -99.90      -99.90      -99.90      -99.90      -99.90      -99.90    
       -99.90      -99.90      -99.90      -99.90      -99.90      -99.90      -99.90      -99.90      -99.90      -99.90    
  39   -99.90      -99.90      -99.90      -99.90      -99.90      -99.90      -99.90      -99.90      -99.90      -99.90    
       -99.90      -99.90      -99.90      -99.90      -99.90      -99.90      -99.90      -99.90      -99.90      -99.90    
       -99.90      -99.90      -99.90      -99.90      -99.90      -99.90      -99.90      -99.90      -99.90      -99.90    
       -99.90      -99.90      -99.90      -99.90      -99.90      -99.90      -99.90      -99.90      -99.90      -99.90    
  40   -99.90      -99.90      -99.90      -99.90      -99.90      -99.90      -99.90      -99.90      -99.90      -99.90    
       -99.90      -99.90      -99.90      -99.90      -99.90      -99.90      -99.90      -99.90      -99.90      -99.90    
       -99.90      -99.90      -99.90      -99.90      -99.90      -99.90      -99.90      -99.90      -99.90      -99.90    
       -99.90      -99.90      -99.90      -99.90      -99.90      -99.90      -99.90      -99.90      -99.90      -99.90    
1
              HEAD IN LAYER   6 AT END OF TIME STEP  17 IN STRESS PERIOD    3
  ---------------------------------------------------------------------------

            1           2           3           4           5           6           7           8           9          10
           11          12          13          14          15          16          17          18          19          20
           21          22          23          24          25          26          27          28          29          30
           31          32          33          34          35          36          37          38          39          40
 ........................................................................................................................
   1    53.12       51.62       46.68       43.57       41.23      -99.90      -99.90      -99.90      -99.90      -99.90    
       -99.90      -99.90      -99.90      -99.90      -99.90      -99.90      -99.90      -99.90      -99.90      -99.90    
       -99.90      -99.90      -99.90      -99.90      -99.90      -99.90      -99.90      -99.90      -99.90      -99.90    
       -99.90      -99.90      -99.90      -99.90      -99.90      -99.90      -99.90      -99.90      -99.90      -99.90    
   2    51.62       50.34       45.68       42.94       40.78      -99.90      -99.90      -99.90      -99.90      -99.90    
       -99.90      -99.90      -99.90      -99.90      -99.90      -99.90      -99.90      -99.90      -99.90      -99.90    
       -99.90      -99.90      -99.90      -99.90      -99.90      -99.90      -99.90      -99.90      -99.90      -99.90    
       -99.90      -99.90      -99.90      -99.90      -99.90      -99.90      -99.90      -99.90      -99.90      -99.90    
   3    46.68       45.68       43.68       41.79      -99.90      -99.90      -99.90      -99.90      -99.90      -99.90    
       -99.90      -99.90      -99.90      -99.90      -99.90      -99.90      -99.90      -99.90      -99.90      -99.90    
       -99.90      -99.90      -99.90      -99.90      -99.90      -99.90      -99.90      -99.90      -99.90      -99.90    
       -99.90      -99.90      -99.90      -99.90      -99.90      -99.90      -99.90      -99.90      -99.90      -99.90    
   4    43.57       42.94       41.79      -99.90      -99.90      -99.90      -99.90      -99.90      -99.90      -99.90    
       -99.90      -99.90      -99.90      -99.90      -99.90      -99.90      -99.90      -99.90      -99.90      -99.90    
       -99.90      -99.90      -99.90      -99.90      -99.90      -99.90      -99.90      -99.90      -99.90      -99.90    
       -99.90      -99.90      -99.90      -99.90      -99.90      -99.90      -99.90      -99.90      -99.90      -99.90    
   5    41.23       40.78      -99.90      -99.90      -99.90      -99.90      -99.90      -99.90      -99.90      -99.90    
       -99.90      -99.90      -99.90      -99.90      -99.90      -99.90      -99.90      -99.90      -99.90      -99.90    
       -99.90      -99.90      -99.90      -99.90      -99.90      -99.90      -99.90      -99.90      -99.90      -99.90    
       -99.90      -99.90      -99.90      -99.90      -99.90      -99.90      -99.90      -99.90      -99.90      -99.90    
   6   -99.90      -99.90      -99.90      -99.90      -99.90      -99.90      -99.90      -99.90      -99.90      -99.90    
       -99.90      -99.90      -99.90      -99.90      -99.90      -99.90      -99.90      -99.90      -99.90      -99.90    
       -99.90      -99.90      -99.90      -99.90      -99.90      -99.90      -99.90      -99.90      -99.90      -99.90    
       -99.90      -99.90      -99.90      -99.90      -99.90      -99.90      -99.90      -99.90      -99.90      -99.90    
   7   -99.90      -99.90      -99.90      -99.90      -99.90      -99.90      -99.90      -99.90      -99.90      -99.90    
       -99.90      -99.90      -99.90      -99.90      -99.90      -99.90      -99.90      -99.90      -99.90      -99.90    
       -99.90      -99.90      -99.90      -99.90      -99.90      -99.90      -99.90      -99.90      -99.90      -99.90    
       -99.90      -99.90      -99.90      -99.90      -99.90      -99.90      -99.90      -99.90      -99.90      -99.90    
   8   -99.90      -99.90      -99.90      -99.90      -99.90      -99.90      -99.90      -99.90      -99.90      -99.90    
       -99.90      -99.90      -99.90      -99.90      -99.90      -99.90      -99.90      -99.90      -99.90      -99.90    
       -99.90      -99.90      -99.90      -99.90      -99.90      -99.90      -99.90      -99.90      -99.90      -99.90    
       -99.90      -99.90      -99.90      -99.90      -99.90      -99.90      -99.90      -99.90      -99.90      -99.90    
   9   -99.90      -99.90      -99.90      -99.90      -99.90      -99.90      -99.90      -99.90      -99.90      -99.90    
       -99.90      -99.90      -99.90      -99.90      -99.90      -99.90      -99.90      -99.90      -99.90      -99.90    
       -99.90      -99.90      -99.90      -99.90      -99.90      -99.90      -99.90      -99.90      -99.90      -99.90    
       -99.90      -99.90      -99.90      -99.90      -99.90      -99.90      -99.90      -99.90      -99.90      -99.90    
  10   -99.90      -99.90      -99.90      -99.90      -99.90      -99.90      -99.90      -99.90      -99.90      -99.90    
       -99.90      -99.90      -99.90      -99.90      -99.90      -99.90      -99.90      -99.90      -99.90      -99.90    
       -99.90      -99.90      -99.90      -99.90      -99.90      -99.90      -99.90      -99.90      -99.90      -99.90    
       -99.90      -99.90      -99.90      -99.90      -99.90      -99.90      -99.90      -99.90      -99.90      -99.90    
  11   -99.90      -99.90      -99.90      -99.90      -99.90      -99.90      -99.90      -99.90      -99.90      -99.90    
       -99.90      -99.90      -99.90      -99.90      -99.90      -99.90      -99.90      -99.90      -99.90      -99.90    
       -99.90      -99.90      -99.90      -99.90      -99.90      -99.90      -99.90      -99.90      -99.90      -99.90    
       -99.90      -99.90      -99.90      -99.90      -99.90      -99.90      -99.90      -99.90      -99.90      -99.90    
  12   -99.90      -99.90      -99.90      -99.90      -99.90      -99.90      -99.90      -99.90      -99.90      -99.90    
       -99.90      -99.90      -99.90      -99.90      -99.90      -99.90      -99.90      -99.90      -99.90      -99.90    
       -99.90      -99.90      -99.90      -99.90      -99.90      -99.90      -99.90      -99.90      -99.90      -99.90    
       -99.90      -99.90      -99.90      -99.90      -99.90      -99.90      -99.90      -99.90      -99.90      -99.90    
  13   -99.90      -99.90      -99.90      -99.90      -99.90      -99.90      -99.90      -99.90      -99.90      -99.90    
       -99.90      -99.90      -99.90      -99.90      -99.90      -99.90      -99.90      -99.90      -99.90      -99.90    
       -99.90      -99.90      -99.90      -99.90      -99.90      -99.90      -99.90      -99.90      -99.90      -99.90    
       -99.90      -99.90      -99.90      -99.90      -99.90      -99.90      -99.90      -99.90      -99.90      -99.90    
  14   -99.90      -99.90      -99.90      -99.90      -99.90      -99.90      -99.90      -99.90      -99.90      -99.90    
       -99.90      -99.90      -99.90      -99.90      -99.90      -99.90      -99.90      -99.90      -99.90      -99.90    
       -99.90      -99.90      -99.90      -99.90      -99.90      -99.90      -99.90      -99.90      -99.90      -99.90    
       -99.90      -99.90      -99.90      -99.90      -99.90      -99.90      -99.90      -99.90      -99.90      -99.90    
  15   -99.90      -99.90      -99.90      -99.90      -99.90      -99.90      -99.90      -99.90      -99.90      -99.90    
       -99.90      -99.90      -99.90      -99.90      -99.90      -99.90      -99.90      -99.90      -99.90      -99.90    
       -99.90      -99.90      -99.90      -99.90      -99.90      -99.90      -99.90      -99.90      -99.90      -99.90    
       -99.90      -99.90      -99.90      -99.90      -99.90      -99.90      -99.90      -99.90      -99.90      -99.90    
  16   -99.90      -99.90      -99.90      -99.90      -99.90      -99.90      -99.90      -99.90      -99.90      -99.90    
       -99.90      -99.90      -99.90      -99.90      -99.90      -99.90      -99.90      -99.90      -99.90      -99.90    
       -99.90      -99.90      -99.90      -99.90      -99.90      -99.90      -99.90      -99.90      -99.90      -99.90    
       -99.90      -99.90      -99.90      -99.90      -99.90      -99.90      -99.90      -99.90      -99.90      -99.90    
  17   -99.90      -99.90      -99.90      -99.90      -99.90      -99.90      -99.90      -99.90      -99.90      -99.90    
       -99.90      -99.90      -99.90      -99.90      -99.90      -99.90      -99.90      -99.90      -99.90      -99.90    
       -99.90      -99.90      -99.90      -99.90      -99.90      -99.90      -99.90      -99.90      -99.90      -99.90    
       -99.90      -99.90      -99.90      -99.90      -99.90      -99.90      -99.90      -99.90      -99.90      -99.90    
  18   -99.90      -99.90      -99.90      -99.90      -99.90      -99.90      -99.90      -99.90      -99.90      -99.90    
       -99.90      -99.90      -99.90      -99.90      -99.90      -99.90      -99.90      -99.90      -99.90      -99.90    
       -99.90      -99.90      -99.90      -99.90      -99.90      -99.90      -99.90      -99.90      -99.90      -99.90    
       -99.90      -99.90      -99.90      -99.90      -99.90      -99.90      -99.90      -99.90      -99.90      -99.90    
  19   -99.90      -99.90      -99.90      -99.90      -99.90      -99.90      -99.90      -99.90      -99.90      -99.90    
       -99.90      -99.90      -99.90      -99.90      -99.90      -99.90      -99.90      -99.90      -99.90      -99.90    
       -99.90      -99.90      -99.90      -99.90      -99.90      -99.90      -99.90      -99.90      -99.90      -99.90    
       -99.90      -99.90      -99.90      -99.90      -99.90      -99.90      -99.90      -99.90      -99.90      -99.90    
  20   -99.90      -99.90      -99.90      -99.90      -99.90      -99.90      -99.90      -99.90      -99.90      -99.90    
       -99.90      -99.90      -99.90      -99.90      -99.90      -99.90      -99.90      -99.90      -99.90      -99.90    
       -99.90      -99.90      -99.90      -99.90      -99.90      -99.90      -99.90      -99.90      -99.90      -99.90    
       -99.90      -99.90      -99.90      -99.90      -99.90      -99.90      -99.90      -99.90      -99.90      -99.90    
  21   -99.90      -99.90      -99.90      -99.90      -99.90      -99.90      -99.90      -99.90      -99.90      -99.90    
       -99.90      -99.90      -99.90      -99.90      -99.90      -99.90      -99.90      -99.90      -99.90      -99.90    
       -99.90      -99.90      -99.90      -99.90      -99.90      -99.90      -99.90      -99.90      -99.90      -99.90    
       -99.90      -99.90      -99.90      -99.90      -99.90      -99.90      -99.90      -99.90      -99.90      -99.90    
  22   -99.90      -99.90      -99.90      -99.90      -99.90      -99.90      -99.90      -99.90      -99.90      -99.90    
       -99.90      -99.90      -99.90      -99.90      -99.90      -99.90      -99.90      -99.90      -99.90      -99.90    
       -99.90      -99.90      -99.90      -99.90      -99.90      -99.90      -99.90      -99.90      -99.90      -99.90    
       -99.90      -99.90      -99.90      -99.90      -99.90      -99.90      -99.90      -99.90      -99.90      -99.90    
  23   -99.90      -99.90      -99.90      -99.90      -99.90      -99.90      -99.90      -99.90      -99.90      -99.90    
       -99.90      -99.90      -99.90      -99.90      -99.90      -99.90      -99.90      -99.90      -99.90      -99.90    
       -99.90      -99.90      -99.90      -99.90      -99.90      -99.90      -99.90      -99.90      -99.90      -99.90    
       -99.90      -99.90      -99.90      -99.90      -99.90      -99.90      -99.90      -99.90      -99.90      -99.90    
  24   -99.90      -99.90      -99.90      -99.90      -99.90      -99.90      -99.90      -99.90      -99.90      -99.90    
       -99.90      -99.90      -99.90      -99.90      -99.90      -99.90      -99.90      -99.90      -99.90      -99.90    
       -99.90      -99.90      -99.90      -99.90      -99.90      -99.90      -99.90      -99.90      -99.90      -99.90    
       -99.90      -99.90      -99.90      -99.90      -99.90      -99.90      -99.90      -99.90      -99.90      -99.90    
  25   -99.90      -99.90      -99.90      -99.90      -99.90      -99.90      -99.90      -99.90      -99.90      -99.90    
       -99.90      -99.90      -99.90      -99.90      -99.90      -99.90      -99.90      -99.90      -99.90      -99.90    
       -99.90      -99.90      -99.90      -99.90      -99.90      -99.90      -99.90      -99.90      -99.90      -99.90    
       -99.90      -99.90      -99.90      -99.90      -99.90      -99.90      -99.90      -99.90      -99.90      -99.90    
  26   -99.90      -99.90      -99.90      -99.90      -99.90      -99.90      -99.90      -99.90      -99.90      -99.90    
       -99.90      -99.90      -99.90      -99.90      -99.90      -99.90      -99.90      -99.90      -99.90      -99.90    
       -99.90      -99.90      -99.90      -99.90      -99.90      -99.90      -99.90      -99.90      -99.90      -99.90    
       -99.90      -99.90      -99.90      -99.90      -99.90      -99.90      -99.90      -99.90      -99.90      -99.90    
  27   -99.90      -99.90      -99.90      -99.90      -99.90      -99.90      -99.90      -99.90      -99.90      -99.90    
       -99.90      -99.90      -99.90      -99.90      -99.90      -99.90      -99.90      -99.90      -99.90      -99.90    
       -99.90      -99.90      -99.90      -99.90      -99.90      -99.90      -99.90      -99.90      -99.90      -99.90    
       -99.90      -99.90      -99.90      -99.90      -99.90      -99.90      -99.90      -99.90      -99.90      -99.90    
  28   -99.90      -99.90      -99.90      -99.90      -99.90      -99.90      -99.90      -99.90      -99.90      -99.90    
       -99.90      -99.90      -99.90      -99.90      -99.90      -99.90      -99.90      -99.90      -99.90      -99.90    
       -99.90      -99.90      -99.90      -99.90      -99.90      -99.90      -99.90      -99.90      -99.90      -99.90    
       -99.90      -99.90      -99.90      -99.90      -99.90      -99.90      -99.90      -99.90      -99.90      -99.90    
  29   -99.90      -99.90      -99.90      -99.90      -99.90      -99.90      -99.90      -99.90      -99.90      -99.90    
       -99.90      -99.90      -99.90      -99.90      -99.90      -99.90      -99.90      -99.90      -99.90      -99.90    
       -99.90      -99.90      -99.90      -99.90      -99.90      -99.90      -99.90      -99.90      -99.90      -99.90    
       -99.90      -99.90      -99.90      -99.90      -99.90      -99.90      -99.90      -99.90      -99.90      -99.90    
  30   -99.90      -99.90      -99.90      -99.90      -99.90      -99.90      -99.90      -99.90      -99.90      -99.90    
       -99.90      -99.90      -99.90      -99.90      -99.90      -99.90      -99.90      -99.90      -99.90      -99.90    
       -99.90      -99.90      -99.90      -99.90      -99.90      -99.90      -99.90      -99.90      -99.90      -99.90    
       -99.90      -99.90      -99.90      -99.90      -99.90      -99.90      -99.90      -99.90      -99.90      -99.90    
  31   -99.90      -99.90      -99.90      -99.90      -99.90      -99.90      -99.90      -99.90      -99.90      -99.90    
       -99.90      -99.90      -99.90      -99.90      -99.90      -99.90      -99.90      -99.90      -99.90      -99.90    
       -99.90      -99.90      -99.90      -99.90      -99.90      -99.90      -99.90      -99.90      -99.90      -99.90    
       -99.90      -99.90      -99.90      -99.90      -99.90      -99.90      -99.90      -99.90      -99.90      -99.90    
  32   -99.90      -99.90      -99.90      -99.90      -99.90      -99.90      -99.90      -99.90      -99.90      -99.90    
       -99.90      -99.90      -99.90      -99.90      -99.90      -99.90      -99.90      -99.90      -99.90      -99.90    
       -99.90      -99.90      -99.90      -99.90      -99.90      -99.90      -99.90      -99.90      -99.90      -99.90    
       -99.90      -99.90      -99.90      -99.90      -99.90      -99.90      -99.90      -99.90      -99.90      -99.90    
  33   -99.90      -99.90      -99.90      -99.90      -99.90      -99.90      -99.90      -99.90      -99.90      -99.90    
       -99.90      -99.90      -99.90      -99.90      -99.90      -99.90      -99.90      -99.90      -99.90      -99.90    
       -99.90      -99.90      -99.90      -99.90      -99.90      -99.90      -99.90      -99.90      -99.90      -99.90    
       -99.90      -99.90      -99.90      -99.90      -99.90      -99.90      -99.90      -99.90      -99.90      -99.90    
  34   -99.90      -99.90      -99.90      -99.90      -99.90      -99.90      -99.90      -99.90      -99.90      -99.90    
       -99.90      -99.90      -99.90      -99.90      -99.90      -99.90      -99.90      -99.90      -99.90      -99.90    
       -99.90      -99.90      -99.90      -99.90      -99.90      -99.90      -99.90      -99.90      -99.90      -99.90    
       -99.90      -99.90      -99.90      -99.90      -99.90      -99.90      -99.90      -99.90      -99.90      -99.90    
  35   -99.90      -99.90      -99.90      -99.90      -99.90      -99.90      -99.90      -99.90      -99.90      -99.90    
       -99.90      -99.90      -99.90      -99.90      -99.90      -99.90      -99.90      -99.90      -99.90      -99.90    
       -99.90      -99.90      -99.90      -99.90      -99.90      -99.90      -99.90      -99.90      -99.90      -99.90    
       -99.90      -99.90      -99.90      -99.90      -99.90      -99.90      -99.90      -99.90      -99.90      -99.90    
  36   -99.90      -99.90      -99.90      -99.90      -99.90      -99.90      -99.90      -99.90      -99.90      -99.90    
       -99.90      -99.90      -99.90      -99.90      -99.90      -99.90      -99.90      -99.90      -99.90      -99.90    
       -99.90      -99.90      -99.90      -99.90      -99.90      -99.90      -99.90      -99.90      -99.90      -99.90    
       -99.90      -99.90      -99.90      -99.90      -99.90      -99.90      -99.90      -99.90      -99.90      -99.90    
  37   -99.90      -99.90      -99.90      -99.90      -99.90      -99.90      -99.90      -99.90      -99.90      -99.90    
       -99.90      -99.90      -99.90      -99.90      -99.90      -99.90      -99.90      -99.90      -99.90      -99.90    
       -99.90      -99.90      -99.90      -99.90      -99.90      -99.90      -99.90      -99.90      -99.90      -99.90    
       -99.90      -99.90      -99.90      -99.90      -99.90      -99.90      -99.90      -99.90      -99.90      -99.90    
  38   -99.90      -99.90      -99.90      -99.90      -99.90      -99.90      -99.90      -99.90      -99.90      -99.90    
       -99.90      -99.90      -99.90      -99.90      -99.90      -99.90      -99.90      -99.90      -99.90      -99.90    
       -99.90      -99.90      -99.90      -99.90      -99.90      -99.90      -99.90      -99.90      -99.90      -99.90    
       -99.90      -99.90      -99.90      -99.90      -99.90      -99.90      -99.90      -99.90      -99.90      -99.90    
  39   -99.90      -99.90      -99.90      -99.90      -99.90      -99.90      -99.90      -99.90      -99.90      -99.90    
       -99.90      -99.90      -99.90      -99.90      -99.90      -99.90      -99.90      -99.90      -99.90      -99.90    
       -99.90      -99.90      -99.90      -99.90      -99.90      -99.90      -99.90      -99.90      -99.90      -99.90    
       -99.90      -99.90      -99.90      -99.90      -99.90      -99.90      -99.90      -99.90      -99.90      -99.90    
  40   -99.90      -99.90      -99.90      -99.90      -99.90      -99.90      -99.90      -99.90      -99.90      -99.90    
       -99.90      -99.90      -99.90      -99.90      -99.90      -99.90      -99.90      -99.90      -99.90      -99.90    
       -99.90      -99.90      -99.90      -99.90      -99.90      -99.90      -99.90      -99.90      -99.90      -99.90    
       -99.90      -99.90      -99.90      -99.90      -99.90      -99.90      -99.90      -99.90      -99.90      -99.90    
1
              HEAD IN LAYER   7 AT END OF TIME STEP  17 IN STRESS PERIOD    3
  ---------------------------------------------------------------------------

            1           2           3           4           5           6           7           8           9          10
           11          12          13          14          15          16          17          18          19          20
           21          22          23          24          25          26          27          28          29          30
           31          32          33          34          35          36          37          38          39          40
 ........................................................................................................................
   1    52.38       50.86       46.56       43.53       41.21       39.27       37.64       36.21      -99.90      -99.90    
       -99.90      -99.90      -99.90      -99.90      -99.90      -99.90      -99.90      -99.90      -99.90      -99.90    
       -99.90      -99.90      -99.90      -99.90      -99.90      -99.90      -99.90      -99.90      -99.90      -99.90    
       -99.90      -99.90      -99.90      -99.90      -99.90      -99.90      -99.90      -99.90      -99.90      -99.90    
   2    50.86       49.53       45.57       42.91       40.77       38.97       37.41       36.03      -99.90      -99.90    
       -99.90      -99.90      -99.90      -99.90      -99.90      -99.90      -99.90      -99.90      -99.90      -99.90    
       -99.90      -99.90      -99.90      -99.90      -99.90      -99.90      -99.90      -99.90      -99.90      -99.90    
       -99.90      -99.90      -99.90      -99.90      -99.90      -99.90      -99.90      -99.90      -99.90      -99.90    
   3    46.56       45.57       43.64       41.76       39.96       38.40       36.98       35.69      -99.90      -99.90    
       -99.90      -99.90      -99.90      -99.90      -99.90      -99.90      -99.90      -99.90      -99.90      -99.90    
       -99.90      -99.90      -99.90      -99.90      -99.90      -99.90      -99.90      -99.90      -99.90      -99.90    
       -99.90      -99.90      -99.90      -99.90      -99.90      -99.90      -99.90      -99.90      -99.90      -99.90    
   4    43.53       42.91       41.76       40.35       38.97       37.64       36.40      -99.90      -99.90      -99.90    
       -99.90      -99.90      -99.90      -99.90      -99.90      -99.90      -99.90      -99.90      -99.90      -99.90    
       -99.90      -99.90      -99.90      -99.90      -99.90      -99.90      -99.90      -99.90      -99.90      -99.90    
       -99.90      -99.90      -99.90      -99.90      -99.90      -99.90      -99.90      -99.90      -99.90      -99.90    
   5    41.21       40.77       39.96       38.97       37.88       36.77       35.68      -99.90      -99.90      -99.90    
       -99.90      -99.90      -99.90      -99.90      -99.90      -99.90      -99.90      -99.90      -99.90      -99.90    
       -99.90      -99.90      -99.90      -99.90      -99.90      -99.90      -99.90      -99.90      -99.90      -99.90    
       -99.90      -99.90      -99.90      -99.90      -99.90      -99.90      -99.90      -99.90      -99.90      -99.90    
   6    39.27       38.97       38.40       37.64       36.77       35.85      -99.90      -99.90      -99.90      -99.90    
       -99.90      -99.90      -99.90      -99.90      -99.90      -99.90      -99.90      -99.90      -99.90      -99.90    
       -99.90      -99.90      -99.90      -99.90      -99.90      -99.90      -99.90      -99.90      -99.90      -99.90    
       -99.90      -99.90      -99.90      -99.90      -99.90      -99.90      -99.90      -99.90      -99.90      -99.90    
   7    37.64       37.41       36.98       36.40       35.68      -99.90      -99.90      -99.90      -99.90      -99.90    
       -99.90      -99.90      -99.90      -99.90      -99.90      -99.90      -99.90      -99.90      -99.90      -99.90    
       -99.90      -99.90      -99.90      -99.90      -99.90      -99.90      -99.90      -99.90      -99.90      -99.90    
       -99.90      -99.90      -99.90      -99.90      -99.90      -99.90      -99.90      -99.90      -99.90      -99.90    
   8    36.21       36.03       35.69      -99.90      -99.90      -99.90      -99.90      -99.90      -99.90      -99.90    
       -99.90      -99.90      -99.90      -99.90      -99.90      -99.90      -99.90      -99.90      -99.90      -99.90    
       -99.90      -99.90      -99.90      -99.90      -99.90      -99.90      -99.90      -99.90      -99.90      -99.90    
       -99.90      -99.90      -99.90      -99.90      -99.90      -99.90      -99.90      -99.90      -99.90      -99.90    
   9   -99.90      -99.90      -99.90      -99.90      -99.90      -99.90      -99.90      -99.90      -99.90      -99.90    
       -99.90      -99.90      -99.90      -99.90      -99.90      -99.90      -99.90      -99.90      -99.90      -99.90    
       -99.90      -99.90      -99.90      -99.90      -99.90      -99.90      -99.90      -99.90      -99.90      -99.90    
       -99.90      -99.90      -99.90      -99.90      -99.90      -99.90      -99.90      -99.90      -99.90      -99.90    
  10   -99.90      -99.90      -99.90      -99.90      -99.90      -99.90      -99.90      -99.90      -99.90      -99.90    
       -99.90      -99.90      -99.90      -99.90      -99.90      -99.90      -99.90      -99.90      -99.90      -99.90    
       -99.90      -99.90      -99.90      -99.90      -99.90      -99.90      -99.90      -99.90      -99.90      -99.90    
       -99.90      -99.90      -99.90      -99.90      -99.90      -99.90      -99.90      -99.90      -99.90      -99.90    
  11   -99.90      -99.90      -99.90      -99.90      -99.90      -99.90      -99.90      -99.90      -99.90      -99.90    
       -99.90      -99.90      -99.90      -99.90      -99.90      -99.90      -99.90      -99.90      -99.90      -99.90    
       -99.90      -99.90      -99.90      -99.90      -99.90      -99.90      -99.90      -99.90      -99.90      -99.90    
       -99.90      -99.90      -99.90      -99.90      -99.90      -99.90      -99.90      -99.90      -99.90      -99.90    
  12   -99.90      -99.90      -99.90      -99.90      -99.90      -99.90      -99.90      -99.90      -99.90      -99.90    
       -99.90      -99.90      -99.90      -99.90      -99.90      -99.90      -99.90      -99.90      -99.90      -99.90    
       -99.90      -99.90      -99.90      -99.90      -99.90      -99.90      -99.90      -99.90      -99.90      -99.90    
       -99.90      -99.90      -99.90      -99.90      -99.90      -99.90      -99.90      -99.90      -99.90      -99.90    
  13   -99.90      -99.90      -99.90      -99.90      -99.90      -99.90      -99.90      -99.90      -99.90      -99.90    
       -99.90      -99.90      -99.90      -99.90      -99.90      -99.90      -99.90      -99.90      -99.90      -99.90    
       -99.90      -99.90      -99.90      -99.90      -99.90      -99.90      -99.90      -99.90      -99.90      -99.90    
       -99.90      -99.90      -99.90      -99.90      -99.90      -99.90      -99.90      -99.90      -99.90      -99.90    
  14   -99.90      -99.90      -99.90      -99.90      -99.90      -99.90      -99.90      -99.90      -99.90      -99.90    
       -99.90      -99.90      -99.90      -99.90      -99.90      -99.90      -99.90      -99.90      -99.90      -99.90    
       -99.90      -99.90      -99.90      -99.90      -99.90      -99.90      -99.90      -99.90      -99.90      -99.90    
       -99.90      -99.90      -99.90      -99.90      -99.90      -99.90      -99.90      -99.90      -99.90      -99.90    
  15   -99.90      -99.90      -99.90      -99.90      -99.90      -99.90      -99.90      -99.90      -99.90      -99.90    
       -99.90      -99.90      -99.90      -99.90      -99.90      -99.90      -99.90      -99.90      -99.90      -99.90    
       -99.90      -99.90      -99.90      -99.90      -99.90      -99.90      -99.90      -99.90      -99.90      -99.90    
       -99.90      -99.90      -99.90      -99.90      -99.90      -99.90      -99.90      -99.90      -99.90      -99.90    
  16   -99.90      -99.90      -99.90      -99.90      -99.90      -99.90      -99.90      -99.90      -99.90      -99.90    
       -99.90      -99.90      -99.90      -99.90      -99.90      -99.90      -99.90      -99.90      -99.90      -99.90    
       -99.90      -99.90      -99.90      -99.90      -99.90      -99.90      -99.90      -99.90      -99.90      -99.90    
       -99.90      -99.90      -99.90      -99.90      -99.90      -99.90      -99.90      -99.90      -99.90      -99.90    
  17   -99.90      -99.90      -99.90      -99.90      -99.90      -99.90      -99.90      -99.90      -99.90      -99.90    
       -99.90      -99.90      -99.90      -99.90      -99.90      -99.90      -99.90      -99.90      -99.90      -99.90    
       -99.90      -99.90      -99.90      -99.90      -99.90      -99.90      -99.90      -99.90      -99.90      -99.90    
       -99.90      -99.90      -99.90      -99.90      -99.90      -99.90      -99.90      -99.90      -99.90      -99.90    
  18   -99.90      -99.90      -99.90      -99.90      -99.90      -99.90      -99.90      -99.90      -99.90      -99.90    
       -99.90      -99.90      -99.90      -99.90      -99.90      -99.90      -99.90      -99.90      -99.90      -99.90    
       -99.90      -99.90      -99.90      -99.90      -99.90      -99.90      -99.90      -99.90      -99.90      -99.90    
       -99.90      -99.90      -99.90      -99.90      -99.90      -99.90      -99.90      -99.90      -99.90      -99.90    
  19   -99.90      -99.90      -99.90      -99.90      -99.90      -99.90      -99.90      -99.90      -99.90      -99.90    
       -99.90      -99.90      -99.90      -99.90      -99.90      -99.90      -99.90      -99.90      -99.90      -99.90    
       -99.90      -99.90      -99.90      -99.90      -99.90      -99.90      -99.90      -99.90      -99.90      -99.90    
       -99.90      -99.90      -99.90      -99.90      -99.90      -99.90      -99.90      -99.90      -99.90      -99.90    
  20   -99.90      -99.90      -99.90      -99.90      -99.90      -99.90      -99.90      -99.90      -99.90      -99.90    
       -99.90      -99.90      -99.90      -99.90      -99.90      -99.90      -99.90      -99.90      -99.90      -99.90    
       -99.90      -99.90      -99.90      -99.90      -99.90      -99.90      -99.90      -99.90      -99.90      -99.90    
       -99.90      -99.90      -99.90      -99.90      -99.90      -99.90      -99.90      -99.90      -99.90      -99.90    
  21   -99.90      -99.90      -99.90      -99.90      -99.90      -99.90      -99.90      -99.90      -99.90      -99.90    
       -99.90      -99.90      -99.90      -99.90      -99.90      -99.90      -99.90      -99.90      -99.90      -99.90    
       -99.90      -99.90      -99.90      -99.90      -99.90      -99.90      -99.90      -99.90      -99.90      -99.90    
       -99.90      -99.90      -99.90      -99.90      -99.90      -99.90      -99.90      -99.90      -99.90      -99.90    
  22   -99.90      -99.90      -99.90      -99.90      -99.90      -99.90      -99.90      -99.90      -99.90      -99.90    
       -99.90      -99.90      -99.90      -99.90      -99.90      -99.90      -99.90      -99.90      -99.90      -99.90    
       -99.90      -99.90      -99.90      -99.90      -99.90      -99.90      -99.90      -99.90      -99.90      -99.90    
       -99.90      -99.90      -99.90      -99.90      -99.90      -99.90      -99.90      -99.90      -99.90      -99.90    
  23   -99.90      -99.90      -99.90      -99.90      -99.90      -99.90      -99.90      -99.90      -99.90      -99.90    
       -99.90      -99.90      -99.90      -99.90      -99.90      -99.90      -99.90      -99.90      -99.90      -99.90    
       -99.90      -99.90      -99.90      -99.90      -99.90      -99.90      -99.90      -99.90      -99.90      -99.90    
       -99.90      -99.90      -99.90      -99.90      -99.90      -99.90      -99.90      -99.90      -99.90      -99.90    
  24   -99.90      -99.90      -99.90      -99.90      -99.90      -99.90      -99.90      -99.90      -99.90      -99.90    
       -99.90      -99.90      -99.90      -99.90      -99.90      -99.90      -99.90      -99.90      -99.90      -99.90    
       -99.90      -99.90      -99.90      -99.90      -99.90      -99.90      -99.90      -99.90      -99.90      -99.90    
       -99.90      -99.90      -99.90      -99.90      -99.90      -99.90      -99.90      -99.90      -99.90      -99.90    
  25   -99.90      -99.90      -99.90      -99.90      -99.90      -99.90      -99.90      -99.90      -99.90      -99.90    
       -99.90      -99.90      -99.90      -99.90      -99.90      -99.90      -99.90      -99.90      -99.90      -99.90    
       -99.90      -99.90      -99.90      -99.90      -99.90      -99.90      -99.90      -99.90      -99.90      -99.90    
       -99.90      -99.90      -99.90      -99.90      -99.90      -99.90      -99.90      -99.90      -99.90      -99.90    
  26   -99.90      -99.90      -99.90      -99.90      -99.90      -99.90      -99.90      -99.90      -99.90      -99.90    
       -99.90      -99.90      -99.90      -99.90      -99.90      -99.90      -99.90      -99.90      -99.90      -99.90    
       -99.90      -99.90      -99.90      -99.90      -99.90      -99.90      -99.90      -99.90      -99.90      -99.90    
       -99.90      -99.90      -99.90      -99.90      -99.90      -99.90      -99.90      -99.90      -99.90      -99.90    
  27   -99.90      -99.90      -99.90      -99.90      -99.90      -99.90      -99.90      -99.90      -99.90      -99.90    
       -99.90      -99.90      -99.90      -99.90      -99.90      -99.90      -99.90      -99.90      -99.90      -99.90    
       -99.90      -99.90      -99.90      -99.90      -99.90      -99.90      -99.90      -99.90      -99.90      -99.90    
       -99.90      -99.90      -99.90      -99.90      -99.90      -99.90      -99.90      -99.90      -99.90      -99.90    
  28   -99.90      -99.90      -99.90      -99.90      -99.90      -99.90      -99.90      -99.90      -99.90      -99.90    
       -99.90      -99.90      -99.90      -99.90      -99.90      -99.90      -99.90      -99.90      -99.90      -99.90    
       -99.90      -99.90      -99.90      -99.90      -99.90      -99.90      -99.90      -99.90      -99.90      -99.90    
       -99.90      -99.90      -99.90      -99.90      -99.90      -99.90      -99.90      -99.90      -99.90      -99.90    
  29   -99.90      -99.90      -99.90      -99.90      -99.90      -99.90      -99.90      -99.90      -99.90      -99.90    
       -99.90      -99.90      -99.90      -99.90      -99.90      -99.90      -99.90      -99.90      -99.90      -99.90    
       -99.90      -99.90      -99.90      -99.90      -99.90      -99.90      -99.90      -99.90      -99.90      -99.90    
       -99.90      -99.90      -99.90      -99.90      -99.90      -99.90      -99.90      -99.90      -99.90      -99.90    
  30   -99.90      -99.90      -99.90      -99.90      -99.90      -99.90      -99.90      -99.90      -99.90      -99.90    
       -99.90      -99.90      -99.90      -99.90      -99.90      -99.90      -99.90      -99.90      -99.90      -99.90    
       -99.90      -99.90      -99.90      -99.90      -99.90      -99.90      -99.90      -99.90      -99.90      -99.90    
       -99.90      -99.90      -99.90      -99.90      -99.90      -99.90      -99.90      -99.90      -99.90      -99.90    
  31   -99.90      -99.90      -99.90      -99.90      -99.90      -99.90      -99.90      -99.90      -99.90      -99.90    
       -99.90      -99.90      -99.90      -99.90      -99.90      -99.90      -99.90      -99.90      -99.90      -99.90    
       -99.90      -99.90      -99.90      -99.90      -99.90      -99.90      -99.90      -99.90      -99.90      -99.90    
       -99.90      -99.90      -99.90      -99.90      -99.90      -99.90      -99.90      -99.90      -99.90      -99.90    
  32   -99.90      -99.90      -99.90      -99.90      -99.90      -99.90      -99.90      -99.90      -99.90      -99.90    
       -99.90      -99.90      -99.90      -99.90      -99.90      -99.90      -99.90      -99.90      -99.90      -99.90    
       -99.90      -99.90      -99.90      -99.90      -99.90      -99.90      -99.90      -99.90      -99.90      -99.90    
       -99.90      -99.90      -99.90      -99.90      -99.90      -99.90      -99.90      -99.90      -99.90      -99.90    
  33   -99.90      -99.90      -99.90      -99.90      -99.90      -99.90      -99.90      -99.90      -99.90      -99.90    
       -99.90      -99.90      -99.90      -99.90      -99.90      -99.90      -99.90      -99.90      -99.90      -99.90    
       -99.90      -99.90      -99.90      -99.90      -99.90      -99.90      -99.90      -99.90      -99.90      -99.90    
       -99.90      -99.90      -99.90      -99.90      -99.90      -99.90      -99.90      -99.90      -99.90      -99.90    
  34   -99.90      -99.90      -99.90      -99.90      -99.90      -99.90      -99.90      -99.90      -99.90      -99.90    
       -99.90      -99.90      -99.90      -99.90      -99.90      -99.90      -99.90      -99.90      -99.90      -99.90    
       -99.90      -99.90      -99.90      -99.90      -99.90      -99.90      -99.90      -99.90      -99.90      -99.90    
       -99.90      -99.90      -99.90      -99.90      -99.90      -99.90      -99.90      -99.90      -99.90      -99.90    
  35   -99.90      -99.90      -99.90      -99.90      -99.90      -99.90      -99.90      -99.90      -99.90      -99.90    
       -99.90      -99.90      -99.90      -99.90      -99.90      -99.90      -99.90      -99.90      -99.90      -99.90    
       -99.90      -99.90      -99.90      -99.90      -99.90      -99.90      -99.90      -99.90      -99.90      -99.90    
       -99.90      -99.90      -99.90      -99.90      -99.90      -99.90      -99.90      -99.90      -99.90      -99.90    
  36   -99.90      -99.90      -99.90      -99.90      -99.90      -99.90      -99.90      -99.90      -99.90      -99.90    
       -99.90      -99.90      -99.90      -99.90      -99.90      -99.90      -99.90      -99.90      -99.90      -99.90    
       -99.90      -99.90      -99.90      -99.90      -99.90      -99.90      -99.90      -99.90      -99.90      -99.90    
       -99.90      -99.90      -99.90      -99.90      -99.90      -99.90      -99.90      -99.90      -99.90      -99.90    
  37   -99.90      -99.90      -99.90      -99.90      -99.90      -99.90      -99.90      -99.90      -99.90      -99.90    
       -99.90      -99.90      -99.90      -99.90      -99.90      -99.90      -99.90      -99.90      -99.90      -99.90    
       -99.90      -99.90      -99.90      -99.90      -99.90      -99.90      -99.90      -99.90      -99.90      -99.90    
       -99.90      -99.90      -99.90      -99.90      -99.90      -99.90      -99.90      -99.90      -99.90      -99.90    
  38   -99.90      -99.90      -99.90      -99.90      -99.90      -99.90      -99.90      -99.90      -99.90      -99.90    
       -99.90      -99.90      -99.90      -99.90      -99.90      -99.90      -99.90      -99.90      -99.90      -99.90    
       -99.90      -99.90      -99.90      -99.90      -99.90      -99.90      -99.90      -99.90      -99.90      -99.90    
       -99.90      -99.90      -99.90      -99.90      -99.90      -99.90      -99.90      -99.90      -99.90      -99.90    
  39   -99.90      -99.90      -99.90      -99.90      -99.90      -99.90      -99.90      -99.90      -99.90      -99.90    
       -99.90      -99.90      -99.90      -99.90      -99.90      -99.90      -99.90      -99.90      -99.90      -99.90    
       -99.90      -99.90      -99.90      -99.90      -99.90      -99.90      -99.90      -99.90      -99.90      -99.90    
       -99.90      -99.90      -99.90      -99.90      -99.90      -99.90      -99.90      -99.90      -99.90      -99.90    
  40   -99.90      -99.90      -99.90      -99.90      -99.90      -99.90      -99.90      -99.90      -99.90      -99.90    
       -99.90      -99.90      -99.90      -99.90      -99.90      -99.90      -99.90      -99.90      -99.90      -99.90    
       -99.90      -99.90      -99.90      -99.90      -99.90      -99.90      -99.90      -99.90      -99.90      -99.90    
       -99.90      -99.90      -99.90      -99.90      -99.90      -99.90      -99.90      -99.90      -99.90      -99.90    
1
              HEAD IN LAYER   8 AT END OF TIME STEP  17 IN STRESS PERIOD    3
  ---------------------------------------------------------------------------

            1           2           3           4           5           6           7           8           9          10
           11          12          13          14          15          16          17          18          19          20
           21          22          23          24          25          26          27          28          29          30
           31          32          33          34          35          36          37          38          39          40
 ........................................................................................................................
   1    51.73       50.22       46.42       43.50       41.19       39.27       37.64       36.21       34.92       33.80    
        32.80       31.90       31.10      -99.90      -99.90      -99.90      -99.90      -99.90      -99.90      -99.90    
       -99.90      -99.90      -99.90      -99.90      -99.90      -99.90      -99.90      -99.90      -99.90      -99.90    
       -99.90      -99.90      -99.90      -99.90      -99.90      -99.90      -99.90      -99.90      -99.90      -99.90    
   2    50.22       48.89       45.46       42.87       40.75       38.96       37.41       36.03       34.78       33.69    
        32.71       31.82       31.04      -99.90      -99.90      -99.90      -99.90      -99.90      -99.90      -99.90    
       -99.90      -99.90      -99.90      -99.90      -99.90      -99.90      -99.90      -99.90      -99.90      -99.90    
       -99.90      -99.90      -99.90      -99.90      -99.90      -99.90      -99.90      -99.90      -99.90      -99.90    
   3    46.42       45.46       43.59       41.72       39.95       38.39       36.97       35.69       34.52       33.48    
        32.53       31.68       30.91      -99.90      -99.90      -99.90      -99.90      -99.90      -99.90      -99.90    
       -99.90      -99.90      -99.90      -99.90      -99.90      -99.90      -99.90      -99.90      -99.90      -99.90    
       -99.90      -99.90      -99.90      -99.90      -99.90      -99.90      -99.90      -99.90      -99.90      -99.90    
   4    43.50       42.87       41.72       40.34       38.96       37.63       36.39       35.22       34.15       33.17    
        32.28       31.46       30.72      -99.90      -99.90      -99.90      -99.90      -99.90      -99.90      -99.90    
       -99.90      -99.90      -99.90      -99.90      -99.90      -99.90      -99.90      -99.90      -99.90      -99.90    
       -99.90      -99.90      -99.90      -99.90      -99.90      -99.90      -99.90      -99.90      -99.90      -99.90    
   5    41.19       40.75       39.95       38.96       37.87       36.76       35.68       34.65       33.69       32.79    
        31.96       31.19       30.47      -99.90      -99.90      -99.90      -99.90      -99.90      -99.90      -99.90    
       -99.90      -99.90      -99.90      -99.90      -99.90      -99.90      -99.90      -99.90      -99.90      -99.90    
       -99.90      -99.90      -99.90      -99.90      -99.90      -99.90      -99.90      -99.90      -99.90      -99.90    
   6    39.27       38.96       38.39       37.63       36.76       35.85       34.91       34.02       33.17       32.36    
        31.59       30.89      -99.90      -99.90      -99.90      -99.90      -99.90      -99.90      -99.90      -99.90    
       -99.90      -99.90      -99.90      -99.90      -99.90      -99.90      -99.90      -99.90      -99.90      -99.90    
       -99.90      -99.90      -99.90      -99.90      -99.90      -99.90      -99.90      -99.90      -99.90      -99.90    
   7    37.64       37.41       36.97       36.39       35.68       34.91       34.14       33.37       32.61       31.88    
        31.19       30.52      -99.90      -99.90      -99.90      -99.90      -99.90      -99.90      -99.90      -99.90    
       -99.90      -99.90      -99.90      -99.90      -99.90      -99.90      -99.90      -99.90      -99.90      -99.90    
       -99.90      -99.90      -99.90      -99.90      -99.90      -99.90      -99.90      -99.90      -99.90      -99.90    
   8    36.21       36.03       35.69       35.22       34.65       34.02       33.37       32.70       32.04       31.39    
        30.78      -99.90      -99.90      -99.90      -99.90      -99.90      -99.90      -99.90      -99.90      -99.90    
       -99.90      -99.90      -99.90      -99.90      -99.90      -99.90      -99.90      -99.90      -99.90      -99.90    
       -99.90      -99.90      -99.90      -99.90      -99.90      -99.90      -99.90      -99.90      -99.90      -99.90    
   9    34.92       34.78       34.52       34.15       33.69       33.17       32.61       32.04       31.46       30.90    
       -99.90      -99.90      -99.90      -99.90      -99.90      -99.90      -99.90      -99.90      -99.90      -99.90    
       -99.90      -99.90      -99.90      -99.90      -99.90      -99.90      -99.90      -99.90      -99.90      -99.90    
       -99.90      -99.90      -99.90      -99.90      -99.90      -99.90      -99.90      -99.90      -99.90      -99.90    
  10    33.80       33.69       33.48       33.17       32.79       32.36       31.88       31.39       30.90      -99.90    
       -99.90      -99.90      -99.90      -99.90      -99.90      -99.90      -99.90      -99.90      -99.90      -99.90    
       -99.90      -99.90      -99.90      -99.90      -99.90      -99.90      -99.90      -99.90      -99.90      -99.90    
       -99.90      -99.90      -99.90      -99.90      -99.90      -99.90      -99.90      -99.90      -99.90      -99.90    
  11    32.80       32.71       32.53       32.28       31.96       31.59       31.19       30.78      -99.90      -99.90    
       -99.90      -99.90      -99.90      -99.90      -99.90      -99.90      -99.90      -99.90      -99.90      -99.90    
       -99.90      -99.90      -99.90      -99.90      -99.90      -99.90      -99.90      -99.90      -99.90      -99.90    
       -99.90      -99.90      -99.90      -99.90      -99.90      -99.90      -99.90      -99.90      -99.90      -99.90    
  12    31.90       31.82       31.68       31.46       31.19       30.89       30.52      -99.90      -99.90      -99.90    
       -99.90      -99.90      -99.90      -99.90      -99.90      -99.90      -99.90      -99.90      -99.90      -99.90    
       -99.90      -99.90      -99.90      -99.90      -99.90      -99.90      -99.90      -99.90      -99.90      -99.90    
       -99.90      -99.90      -99.90      -99.90      -99.90      -99.90      -99.90      -99.90      -99.90      -99.90    
  13    31.10       31.04       30.91       30.72       30.47      -99.90      -99.90      -99.90      -99.90      -99.90    
       -99.90      -99.90      -99.90      -99.90      -99.90      -99.90      -99.90      -99.90      -99.90      -99.90    
       -99.90      -99.90      -99.90      -99.90      -99.90      -99.90      -99.90      -99.90      -99.90      -99.90    
       -99.90      -99.90      -99.90      -99.90      -99.90      -99.90      -99.90      -99.90      -99.90      -99.90    
  14   -99.90      -99.90      -99.90      -99.90      -99.90      -99.90      -99.90      -99.90      -99.90      -99.90    
       -99.90      -99.90      -99.90      -99.90      -99.90      -99.90      -99.90      -99.90      -99.90      -99.90    
       -99.90      -99.90      -99.90      -99.90      -99.90      -99.90      -99.90      -99.90      -99.90      -99.90    
       -99.90      -99.90      -99.90      -99.90      -99.90      -99.90      -99.90      -99.90      -99.90      -99.90    
  15   -99.90      -99.90      -99.90      -99.90      -99.90      -99.90      -99.90      -99.90      -99.90      -99.90    
       -99.90      -99.90      -99.90      -99.90      -99.90      -99.90      -99.90      -99.90      -99.90      -99.90    
       -99.90      -99.90      -99.90      -99.90      -99.90      -99.90      -99.90      -99.90      -99.90      -99.90    
       -99.90      -99.90      -99.90      -99.90      -99.90      -99.90      -99.90      -99.90      -99.90      -99.90    
  16   -99.90      -99.90      -99.90      -99.90      -99.90      -99.90      -99.90      -99.90      -99.90      -99.90    
       -99.90      -99.90      -99.90      -99.90      -99.90      -99.90      -99.90      -99.90      -99.90      -99.90    
       -99.90      -99.90      -99.90      -99.90      -99.90      -99.90      -99.90      -99.90      -99.90      -99.90    
       -99.90      -99.90      -99.90      -99.90      -99.90      -99.90      -99.90      -99.90      -99.90      -99.90    
  17   -99.90      -99.90      -99.90      -99.90      -99.90      -99.90      -99.90      -99.90      -99.90      -99.90    
       -99.90      -99.90      -99.90      -99.90      -99.90      -99.90      -99.90      -99.90      -99.90      -99.90    
       -99.90      -99.90      -99.90      -99.90      -99.90      -99.90      -99.90      -99.90      -99.90      -99.90    
       -99.90      -99.90      -99.90      -99.90      -99.90      -99.90      -99.90      -99.90      -99.90      -99.90    
  18   -99.90      -99.90      -99.90      -99.90      -99.90      -99.90      -99.90      -99.90      -99.90      -99.90    
       -99.90      -99.90      -99.90      -99.90      -99.90      -99.90      -99.90      -99.90      -99.90      -99.90    
       -99.90      -99.90      -99.90      -99.90      -99.90      -99.90      -99.90      -99.90      -99.90      -99.90    
       -99.90      -99.90      -99.90      -99.90      -99.90      -99.90      -99.90      -99.90      -99.90      -99.90    
  19   -99.90      -99.90      -99.90      -99.90      -99.90      -99.90      -99.90      -99.90      -99.90      -99.90    
       -99.90      -99.90      -99.90      -99.90      -99.90      -99.90      -99.90      -99.90      -99.90      -99.90    
       -99.90      -99.90      -99.90      -99.90      -99.90      -99.90      -99.90      -99.90      -99.90      -99.90    
       -99.90      -99.90      -99.90      -99.90      -99.90      -99.90      -99.90      -99.90      -99.90      -99.90    
  20   -99.90      -99.90      -99.90      -99.90      -99.90      -99.90      -99.90      -99.90      -99.90      -99.90    
       -99.90      -99.90      -99.90      -99.90      -99.90      -99.90      -99.90      -99.90      -99.90      -99.90    
       -99.90      -99.90      -99.90      -99.90      -99.90      -99.90      -99.90      -99.90      -99.90      -99.90    
       -99.90      -99.90      -99.90      -99.90      -99.90      -99.90      -99.90      -99.90      -99.90      -99.90    
  21   -99.90      -99.90      -99.90      -99.90      -99.90      -99.90      -99.90      -99.90      -99.90      -99.90    
       -99.90      -99.90      -99.90      -99.90      -99.90      -99.90      -99.90      -99.90      -99.90      -99.90    
       -99.90      -99.90      -99.90      -99.90      -99.90      -99.90      -99.90      -99.90      -99.90      -99.90    
       -99.90      -99.90      -99.90      -99.90      -99.90      -99.90      -99.90      -99.90      -99.90      -99.90    
  22   -99.90      -99.90      -99.90      -99.90      -99.90      -99.90      -99.90      -99.90      -99.90      -99.90    
       -99.90      -99.90      -99.90      -99.90      -99.90      -99.90      -99.90      -99.90      -99.90      -99.90    
       -99.90      -99.90      -99.90      -99.90      -99.90      -99.90      -99.90      -99.90      -99.90      -99.90    
       -99.90      -99.90      -99.90      -99.90      -99.90      -99.90      -99.90      -99.90      -99.90      -99.90    
  23   -99.90      -99.90      -99.90      -99.90      -99.90      -99.90      -99.90      -99.90      -99.90      -99.90    
       -99.90      -99.90      -99.90      -99.90      -99.90      -99.90      -99.90      -99.90      -99.90      -99.90    
       -99.90      -99.90      -99.90      -99.90      -99.90      -99.90      -99.90      -99.90      -99.90      -99.90    
       -99.90      -99.90      -99.90      -99.90      -99.90      -99.90      -99.90      -99.90      -99.90      -99.90    
  24   -99.90      -99.90      -99.90      -99.90      -99.90      -99.90      -99.90      -99.90      -99.90      -99.90    
       -99.90      -99.90      -99.90      -99.90      -99.90      -99.90      -99.90      -99.90      -99.90      -99.90    
       -99.90      -99.90      -99.90      -99.90      -99.90      -99.90      -99.90      -99.90      -99.90      -99.90    
       -99.90      -99.90      -99.90      -99.90      -99.90      -99.90      -99.90      -99.90      -99.90      -99.90    
  25   -99.90      -99.90      -99.90      -99.90      -99.90      -99.90      -99.90      -99.90      -99.90      -99.90    
       -99.90      -99.90      -99.90      -99.90      -99.90      -99.90      -99.90      -99.90      -99.90      -99.90    
       -99.90      -99.90      -99.90      -99.90      -99.90      -99.90      -99.90      -99.90      -99.90      -99.90    
       -99.90      -99.90      -99.90      -99.90      -99.90      -99.90      -99.90      -99.90      -99.90      -99.90    
  26   -99.90      -99.90      -99.90      -99.90      -99.90      -99.90      -99.90      -99.90      -99.90      -99.90    
       -99.90      -99.90      -99.90      -99.90      -99.90      -99.90      -99.90      -99.90      -99.90      -99.90    
       -99.90      -99.90      -99.90      -99.90      -99.90      -99.90      -99.90      -99.90      -99.90      -99.90    
       -99.90      -99.90      -99.90      -99.90      -99.90      -99.90      -99.90      -99.90      -99.90      -99.90    
  27   -99.90      -99.90      -99.90      -99.90      -99.90      -99.90      -99.90      -99.90      -99.90      -99.90    
       -99.90      -99.90      -99.90      -99.90      -99.90      -99.90      -99.90      -99.90      -99.90      -99.90    
       -99.90      -99.90      -99.90      -99.90      -99.90      -99.90      -99.90      -99.90      -99.90      -99.90    
       -99.90      -99.90      -99.90      -99.90      -99.90      -99.90      -99.90      -99.90      -99.90      -99.90    
  28   -99.90      -99.90      -99.90      -99.90      -99.90      -99.90      -99.90      -99.90      -99.90      -99.90    
       -99.90      -99.90      -99.90      -99.90      -99.90      -99.90      -99.90      -99.90      -99.90      -99.90    
       -99.90      -99.90      -99.90      -99.90      -99.90      -99.90      -99.90      -99.90      -99.90      -99.90    
       -99.90      -99.90      -99.90      -99.90      -99.90      -99.90      -99.90      -99.90      -99.90      -99.90    
  29   -99.90      -99.90      -99.90      -99.90      -99.90      -99.90      -99.90      -99.90      -99.90      -99.90    
       -99.90      -99.90      -99.90      -99.90      -99.90      -99.90      -99.90      -99.90      -99.90      -99.90    
       -99.90      -99.90      -99.90      -99.90      -99.90      -99.90      -99.90      -99.90      -99.90      -99.90    
       -99.90      -99.90      -99.90      -99.90      -99.90      -99.90      -99.90      -99.90      -99.90      -99.90    
  30   -99.90      -99.90      -99.90      -99.90      -99.90      -99.90      -99.90      -99.90      -99.90      -99.90    
       -99.90      -99.90      -99.90      -99.90      -99.90      -99.90      -99.90      -99.90      -99.90      -99.90    
       -99.90      -99.90      -99.90      -99.90      -99.90      -99.90      -99.90      -99.90      -99.90      -99.90    
       -99.90      -99.90      -99.90      -99.90      -99.90      -99.90      -99.90      -99.90      -99.90      -99.90    
  31   -99.90      -99.90      -99.90      -99.90      -99.90      -99.90      -99.90      -99.90      -99.90      -99.90    
       -99.90      -99.90      -99.90      -99.90      -99.90      -99.90      -99.90      -99.90      -99.90      -99.90    
       -99.90      -99.90      -99.90      -99.90      -99.90      -99.90      -99.90      -99.90      -99.90      -99.90    
       -99.90      -99.90      -99.90      -99.90      -99.90      -99.90      -99.90      -99.90      -99.90      -99.90    
  32   -99.90      -99.90      -99.90      -99.90      -99.90      -99.90      -99.90      -99.90      -99.90      -99.90    
       -99.90      -99.90      -99.90      -99.90      -99.90      -99.90      -99.90      -99.90      -99.90      -99.90    
       -99.90      -99.90      -99.90      -99.90      -99.90      -99.90      -99.90      -99.90      -99.90      -99.90    
       -99.90      -99.90      -99.90      -99.90      -99.90      -99.90      -99.90      -99.90      -99.90      -99.90    
  33   -99.90      -99.90      -99.90      -99.90      -99.90      -99.90      -99.90      -99.90      -99.90      -99.90    
       -99.90      -99.90      -99.90      -99.90      -99.90      -99.90      -99.90      -99.90      -99.90      -99.90    
       -99.90      -99.90      -99.90      -99.90      -99.90      -99.90      -99.90      -99.90      -99.90      -99.90    
       -99.90      -99.90      -99.90      -99.90      -99.90      -99.90      -99.90      -99.90      -99.90      -99.90    
  34   -99.90      -99.90      -99.90      -99.90      -99.90      -99.90      -99.90      -99.90      -99.90      -99.90    
       -99.90      -99.90      -99.90      -99.90      -99.90      -99.90      -99.90      -99.90      -99.90      -99.90    
       -99.90      -99.90      -99.90      -99.90      -99.90      -99.90      -99.90      -99.90      -99.90      -99.90    
       -99.90      -99.90      -99.90      -99.90      -99.90      -99.90      -99.90      -99.90      -99.90      -99.90    
  35   -99.90      -99.90      -99.90      -99.90      -99.90      -99.90      -99.90      -99.90      -99.90      -99.90    
       -99.90      -99.90      -99.90      -99.90      -99.90      -99.90      -99.90      -99.90      -99.90      -99.90    
       -99.90      -99.90      -99.90      -99.90      -99.90      -99.90      -99.90      -99.90      -99.90      -99.90    
       -99.90      -99.90      -99.90      -99.90      -99.90      -99.90      -99.90      -99.90      -99.90      -99.90    
  36   -99.90      -99.90      -99.90      -99.90      -99.90      -99.90      -99.90      -99.90      -99.90      -99.90    
       -99.90      -99.90      -99.90      -99.90      -99.90      -99.90      -99.90      -99.90      -99.90      -99.90    
       -99.90      -99.90      -99.90      -99.90      -99.90      -99.90      -99.90      -99.90      -99.90      -99.90    
       -99.90      -99.90      -99.90      -99.90      -99.90      -99.90      -99.90      -99.90      -99.90      -99.90    
  37   -99.90      -99.90      -99.90      -99.90      -99.90      -99.90      -99.90      -99.90      -99.90      -99.90    
       -99.90      -99.90      -99.90      -99.90      -99.90      -99.90      -99.90      -99.90      -99.90      -99.90    
       -99.90      -99.90      -99.90      -99.90      -99.90      -99.90      -99.90      -99.90      -99.90      -99.90    
       -99.90      -99.90      -99.90      -99.90      -99.90      -99.90      -99.90      -99.90      -99.90      -99.90    
  38   -99.90      -99.90      -99.90      -99.90      -99.90      -99.90      -99.90      -99.90      -99.90      -99.90    
       -99.90      -99.90      -99.90      -99.90      -99.90      -99.90      -99.90      -99.90      -99.90      -99.90    
       -99.90      -99.90      -99.90      -99.90      -99.90      -99.90      -99.90      -99.90      -99.90      -99.90    
       -99.90      -99.90      -99.90      -99.90      -99.90      -99.90      -99.90      -99.90      -99.90      -99.90    
  39   -99.90      -99.90      -99.90      -99.90      -99.90      -99.90      -99.90      -99.90      -99.90      -99.90    
       -99.90      -99.90      -99.90      -99.90      -99.90      -99.90      -99.90      -99.90      -99.90      -99.90    
       -99.90      -99.90      -99.90      -99.90      -99.90      -99.90      -99.90      -99.90      -99.90      -99.90    
       -99.90      -99.90      -99.90      -99.90      -99.90      -99.90      -99.90      -99.90      -99.90      -99.90    
  40   -99.90      -99.90      -99.90      -99.90      -99.90      -99.90      -99.90      -99.90      -99.90      -99.90    
       -99.90      -99.90      -99.90      -99.90      -99.90      -99.90      -99.90      -99.90      -99.90      -99.90    
       -99.90      -99.90      -99.90      -99.90      -99.90      -99.90      -99.90      -99.90      -99.90      -99.90    
       -99.90      -99.90      -99.90      -99.90      -99.90      -99.90      -99.90      -99.90      -99.90      -99.90    
1
              HEAD IN LAYER   9 AT END OF TIME STEP  17 IN STRESS PERIOD    3
  ---------------------------------------------------------------------------

            1           2           3           4           5           6           7           8           9          10
           11          12          13          14          15          16          17          18          19          20
           21          22          23          24          25          26          27          28          29          30
           31          32          33          34          35          36          37          38          39          40
 ........................................................................................................................
   1    51.19       49.70       46.29       43.46       41.18       39.26       37.63       36.20       34.92       33.81    
        32.80       31.90       31.10       30.38       29.70       29.11       28.58       28.11       27.69       27.32    
        27.00       26.71       26.46       26.24       26.05       25.88       25.74       25.61       25.49       25.35    
       -99.90      -99.90      -99.90      -99.90      -99.90      -99.90      -99.90      -99.90      -99.90      -99.90    
   2    49.70       48.39       45.34       42.83       40.74       38.95       37.40       36.02       34.79       33.69    
        32.71       31.83       31.04       30.33       29.66       29.07       28.55       28.08       27.67       27.30    
        26.98       26.70       26.45       26.23       26.04       25.88       25.73       25.61       25.49       25.35    
       -99.90      -99.90      -99.90      -99.90      -99.90      -99.90      -99.90      -99.90      -99.90      -99.90    
   3    46.29       45.34       43.54       41.70       39.94       38.38       36.97       35.69       34.52       33.48    
        32.53       31.68       30.91       30.22       29.57       29.00       28.49       28.03       27.63       27.27    
        26.95       26.67       26.43       26.21       26.03       25.87       25.72       25.60       25.48       25.35    
       -99.90      -99.90      -99.90      -99.90      -99.90      -99.90      -99.90      -99.90      -99.90      -99.90    
   4    43.46       42.83       41.70       40.33       38.95       37.63       36.38       35.22       34.15       33.17    
        32.28       31.47       30.72       30.06       29.44       28.90       28.40       27.96       27.57       27.22    
        26.91       26.64       26.40       26.19       26.01       25.85       25.71       25.59       25.47       25.34    
       -99.90      -99.90      -99.90      -99.90      -99.90      -99.90      -99.90      -99.90      -99.90      -99.90    
   5    41.18       40.74       39.94       38.95       37.86       36.76       35.68       34.65       33.69       32.79    
        31.96       31.20       30.48       29.86       29.28       28.76       28.29       27.87       27.49       27.15    
        26.85       26.59       26.36       26.16       25.98       25.83       25.69       25.57       25.46       25.34    
       -99.90      -99.90      -99.90      -99.90      -99.90      -99.90      -99.90      -99.90      -99.90      -99.90    
   6    39.26       38.95       38.38       37.63       36.76       35.84       34.92       34.03       33.17       32.36    
        31.60       30.89       30.25       29.64       29.10       28.60       28.16       27.75       27.39       27.07    
        26.79       26.53       26.31       26.12       25.95       25.80       25.67       25.55       25.44      -99.90    
       -99.90      -99.90      -99.90      -99.90      -99.90      -99.90      -99.90      -99.90      -99.90      -99.90    
   7    37.63       37.40       36.97       36.38       35.68       34.92       34.14       33.37       32.61       31.89    
        31.20       30.53       29.95       29.40       28.89       28.43       28.01       27.63       27.29       26.98    
        26.71       26.47       26.26       26.07       25.91       25.77       25.64       25.52       25.38      -99.90    
       -99.90      -99.90      -99.90      -99.90      -99.90      -99.90      -99.90      -99.90      -99.90      -99.90    
   8    36.20       36.02       35.69       35.22       34.65       34.03       33.37       32.70       32.04       31.40    
        30.79       30.20       29.64       29.13       28.67       28.23       27.84       27.49       27.17       26.88    
        26.63       26.40       26.20       26.02       25.87       25.73       25.61       25.49       25.35      -99.90    
       -99.90      -99.90      -99.90      -99.90      -99.90      -99.90      -99.90      -99.90      -99.90      -99.90    
   9    34.92       34.79       34.52       34.15       33.69       33.17       32.61       32.04       31.47       30.91    
        30.36       29.82       29.32       28.86       28.43       28.03       27.67       27.34       27.04       26.77    
        26.54       26.32       26.13       25.97       25.82       25.69       25.57       25.46       25.33      -99.90    
       -99.90      -99.90      -99.90      -99.90      -99.90      -99.90      -99.90      -99.90      -99.90      -99.90    
  10    33.81       33.69       33.48       33.17       32.79       32.36       31.89       31.40       30.91       30.41    
        29.91       29.44       28.99       28.57       28.18       27.82       27.49       27.18       26.91       26.66    
        26.44       26.24       26.07       25.91       25.77       25.65       25.53       25.37       25.30      -99.90    
       -99.90      -99.90      -99.90      -99.90      -99.90      -99.90      -99.90      -99.90      -99.90      -99.90    
  11    32.80       32.71       32.53       32.28       31.96       31.60       31.20       30.79       30.36       29.91    
        29.48       29.07       28.67       28.29       27.94       27.61       27.30       27.03       26.78       26.55    
        26.34       26.16       26.00       25.85       25.72       25.60       25.49       25.34       25.29      -99.90    
       -99.90      -99.90      -99.90      -99.90      -99.90      -99.90      -99.90      -99.90      -99.90      -99.90    
  12    31.90       31.83       31.68       31.47       31.20       30.89       30.53       30.20       29.82       29.44    
        29.07       28.70       28.34       28.01       27.69       27.39       27.12       26.87       26.64       26.43    
        26.24       26.08       25.93       25.79       25.67       25.56       25.45       25.32      -99.90      -99.90    
       -99.90      -99.90      -99.90      -99.90      -99.90      -99.90      -99.90      -99.90      -99.90      -99.90    
  13    31.10       31.04       30.91       30.72       30.48       30.25       29.95       29.64       29.32       28.99    
        28.67       28.34       28.03       27.73       27.45       27.19       26.94       26.71       26.50       26.32    
        26.15       25.99       25.85       25.73       25.62       25.51       25.37       25.30      -99.90      -99.90    
       -99.90      -99.90      -99.90      -99.90      -99.90      -99.90      -99.90      -99.90      -99.90      -99.90    
  14    30.38       30.33       30.22       30.06       29.86       29.64       29.40       29.13       28.86       28.57    
        28.29       28.01       27.73       27.47       27.22       26.98       26.76       26.56       26.37       26.20    
        26.05       25.91       25.78       25.67       25.57       25.47       25.34      -99.90      -99.90      -99.90    
       -99.90      -99.90      -99.90      -99.90      -99.90      -99.90      -99.90      -99.90      -99.90      -99.90    
  15    29.70       29.66       29.57       29.44       29.28       29.10       28.89       28.67       28.43       28.18    
        27.94       27.69       27.45       27.22       27.00       26.79       26.59       26.41       26.25       26.09    
        25.95       25.83       25.71       25.61       25.52       25.43       25.32      -99.90      -99.90      -99.90    
       -99.90      -99.90      -99.90      -99.90      -99.90      -99.90      -99.90      -99.90      -99.90      -99.90    
  16    29.11       29.07       29.00       28.90       28.76       28.60       28.43       28.23       28.03       27.82    
        27.61       27.39       27.19       26.98       26.79       26.61       26.43       26.27       26.12       25.99    
        25.86       25.75       25.65       25.55       25.46       25.34      -99.90      -99.90      -99.90      -99.90    
       -99.90      -99.90      -99.90      -99.90      -99.90      -99.90      -99.90      -99.90      -99.90      -99.90    
  17    28.58       28.55       28.49       28.40       28.29       28.16       28.01       27.84       27.67       27.49    
        27.30       27.12       26.94       26.76       26.59       26.43       26.28       26.14       26.01       25.89    
        25.78       25.67       25.58       25.49       25.36       25.30      -99.90      -99.90      -99.90      -99.90    
       -99.90      -99.90      -99.90      -99.90      -99.90      -99.90      -99.90      -99.90      -99.90      -99.90    
  18    28.11       28.08       28.03       27.96       27.87       27.75       27.63       27.49       27.34       27.18    
        27.03       26.87       26.71       26.56       26.41       26.27       26.14       26.02       25.90       25.79    
        25.69       25.60       25.51       25.43       25.32      -99.90      -99.90      -99.90      -99.90      -99.90    
       -99.90      -99.90      -99.90      -99.90      -99.90      -99.90      -99.90      -99.90      -99.90      -99.90    
  19    27.69       27.67       27.63       27.57       27.49       27.39       27.29       27.17       27.04       26.91    
        26.78       26.64       26.50       26.37       26.25       26.12       26.01       25.90       25.80       25.70    
        25.61       25.53       25.44       25.33       25.28      -99.90      -99.90      -99.90      -99.90      -99.90    
       -99.90      -99.90      -99.90      -99.90      -99.90      -99.90      -99.90      -99.90      -99.90      -99.90    
  20    27.32       27.30       27.27       27.22       27.15       27.07       26.98       26.88       26.77       26.66    
        26.55       26.43       26.32       26.20       26.09       25.99       25.89       25.79       25.70       25.62    
        25.53       25.45       25.34       25.29      -99.90      -99.90      -99.90      -99.90      -99.90      -99.90    
       -99.90      -99.90      -99.90      -99.90      -99.90      -99.90      -99.90      -99.90      -99.90      -99.90    
  21    27.00       26.98       26.95       26.91       26.85       26.79       26.71       26.63       26.54       26.44    
        26.34       26.24       26.15       26.05       25.95       25.86       25.78       25.69       25.61       25.53    
        25.45       25.34       25.30      -99.90      -99.90      -99.90      -99.90      -99.90      -99.90      -99.90    
       -99.90      -99.90      -99.90      -99.90      -99.90      -99.90      -99.90      -99.90      -99.90      -99.90    
  22    26.71       26.70       26.67       26.64       26.59       26.53       26.47       26.40       26.32       26.24    
        26.16       26.08       25.99       25.91       25.83       25.75       25.67       25.60       25.53       25.45    
        25.34       25.30      -99.90      -99.90      -99.90      -99.90      -99.90      -99.90      -99.90      -99.90    
       -99.90      -99.90      -99.90      -99.90      -99.90      -99.90      -99.90      -99.90      -99.90      -99.90    
  23    26.46       26.45       26.43       26.40       26.36       26.31       26.26       26.20       26.13       26.07    
        26.00       25.93       25.85       25.78       25.71       25.65       25.58       25.51       25.44       25.34    
        25.30      -99.90      -99.90      -99.90      -99.90      -99.90      -99.90      -99.90      -99.90      -99.90    
       -99.90      -99.90      -99.90      -99.90      -99.90      -99.90      -99.90      -99.90      -99.90      -99.90    
  24    26.24       26.23       26.21       26.19       26.16       26.12       26.07       26.02       25.97       25.91    
        25.85       25.79       25.73       25.67       25.61       25.55       25.49       25.43       25.33       25.29    
       -99.90      -99.90      -99.90      -99.90      -99.90      -99.90      -99.90      -99.90      -99.90      -99.90    
       -99.90      -99.90      -99.90      -99.90      -99.90      -99.90      -99.90      -99.90      -99.90      -99.90    
  25    26.05       26.04       26.03       26.01       25.98       25.95       25.91       25.87       25.82       25.77    
        25.72       25.67       25.62       25.57       25.52       25.46       25.36       25.32       25.28      -99.90    
       -99.90      -99.90      -99.90      -99.90      -99.90      -99.90      -99.90      -99.90      -99.90      -99.90    
       -99.90      -99.90      -99.90      -99.90      -99.90      -99.90      -99.90      -99.90      -99.90      -99.90    
  26    25.88       25.88       25.87       25.85       25.83       25.80       25.77       25.73       25.69       25.65    
        25.60       25.56       25.51       25.47       25.43       25.34       25.30      -99.90      -99.90      -99.90    
       -99.90      -99.90      -99.90      -99.90      -99.90      -99.90      -99.90      -99.90      -99.90      -99.90    
       -99.90      -99.90      -99.90      -99.90      -99.90      -99.90      -99.90      -99.90      -99.90      -99.90    
  27    25.74       25.73       25.72       25.71       25.69       25.67       25.64       25.61       25.57       25.53    
        25.49       25.45       25.37       25.34       25.32      -99.90      -99.90      -99.90      -99.90      -99.90    
       -99.90      -99.90      -99.90      -99.90      -99.90      -99.90      -99.90      -99.90      -99.90      -99.90    
       -99.90      -99.90      -99.90      -99.90      -99.90      -99.90      -99.90      -99.90      -99.90      -99.90    
  28    25.61       25.61       25.60       25.59       25.57       25.55       25.52       25.49       25.46       25.37    
        25.34       25.32       25.30      -99.90      -99.90      -99.90      -99.90      -99.90      -99.90      -99.90    
       -99.90      -99.90      -99.90      -99.90      -99.90      -99.90      -99.90      -99.90      -99.90      -99.90    
       -99.90      -99.90      -99.90      -99.90      -99.90      -99.90      -99.90      -99.90      -99.90      -99.90    
  29    25.49       25.49       25.48       25.47       25.46       25.44       25.38       25.35       25.33       25.30    
        25.29      -99.90      -99.90      -99.90      -99.90      -99.90      -99.90      -99.90      -99.90      -99.90    
       -99.90      -99.90      -99.90      -99.90      -99.90      -99.90      -99.90      -99.90      -99.90      -99.90    
       -99.90      -99.90      -99.90      -99.90      -99.90      -99.90      -99.90      -99.90      -99.90      -99.90    
  30    25.35       25.35       25.35       25.34       25.34      -99.90      -99.90      -99.90      -99.90      -99.90    
       -99.90      -99.90      -99.90      -99.90      -99.90      -99.90      -99.90      -99.90      -99.90      -99.90    
       -99.90      -99.90      -99.90      -99.90      -99.90      -99.90      -99.90      -99.90      -99.90      -99.90    
       -99.90      -99.90      -99.90      -99.90      -99.90      -99.90      -99.90      -99.90      -99.90      -99.90    
  31   -99.90      -99.90      -99.90      -99.90      -99.90      -99.90      -99.90      -99.90      -99.90      -99.90    
       -99.90      -99.90      -99.90      -99.90      -99.90      -99.90      -99.90      -99.90      -99.90      -99.90    
       -99.90      -99.90      -99.90      -99.90      -99.90      -99.90      -99.90      -99.90      -99.90      -99.90    
       -99.90      -99.90      -99.90      -99.90      -99.90      -99.90      -99.90      -99.90      -99.90      -99.90    
  32   -99.90      -99.90      -99.90      -99.90      -99.90      -99.90      -99.90      -99.90      -99.90      -99.90    
       -99.90      -99.90      -99.90      -99.90      -99.90      -99.90      -99.90      -99.90      -99.90      -99.90    
       -99.90      -99.90      -99.90      -99.90      -99.90      -99.90      -99.90      -99.90      -99.90      -99.90    
       -99.90      -99.90      -99.90      -99.90      -99.90      -99.90      -99.90      -99.90      -99.90      -99.90    
  33   -99.90      -99.90      -99.90      -99.90      -99.90      -99.90      -99.90      -99.90      -99.90      -99.90    
       -99.90      -99.90      -99.90      -99.90      -99.90      -99.90      -99.90      -99.90      -99.90      -99.90    
       -99.90      -99.90      -99.90      -99.90      -99.90      -99.90      -99.90      -99.90      -99.90      -99.90    
       -99.90      -99.90      -99.90      -99.90      -99.90      -99.90      -99.90      -99.90      -99.90      -99.90    
  34   -99.90      -99.90      -99.90      -99.90      -99.90      -99.90      -99.90      -99.90      -99.90      -99.90    
       -99.90      -99.90      -99.90      -99.90      -99.90      -99.90      -99.90      -99.90      -99.90      -99.90    
       -99.90      -99.90      -99.90      -99.90      -99.90      -99.90      -99.90      -99.90      -99.90      -99.90    
       -99.90      -99.90      -99.90      -99.90      -99.90      -99.90      -99.90      -99.90      -99.90      -99.90    
  35   -99.90      -99.90      -99.90      -99.90      -99.90      -99.90      -99.90      -99.90      -99.90      -99.90    
       -99.90      -99.90      -99.90      -99.90      -99.90      -99.90      -99.90      -99.90      -99.90      -99.90    
       -99.90      -99.90      -99.90      -99.90      -99.90      -99.90      -99.90      -99.90      -99.90      -99.90    
       -99.90      -99.90      -99.90      -99.90      -99.90      -99.90      -99.90      -99.90      -99.90      -99.90    
  36   -99.90      -99.90      -99.90      -99.90      -99.90      -99.90      -99.90      -99.90      -99.90      -99.90    
       -99.90      -99.90      -99.90      -99.90      -99.90      -99.90      -99.90      -99.90      -99.90      -99.90    
       -99.90      -99.90      -99.90      -99.90      -99.90      -99.90      -99.90      -99.90      -99.90      -99.90    
       -99.90      -99.90      -99.90      -99.90      -99.90      -99.90      -99.90      -99.90      -99.90      -99.90    
  37   -99.90      -99.90      -99.90      -99.90      -99.90      -99.90      -99.90      -99.90      -99.90      -99.90    
       -99.90      -99.90      -99.90      -99.90      -99.90      -99.90      -99.90      -99.90      -99.90      -99.90    
       -99.90      -99.90      -99.90      -99.90      -99.90      -99.90      -99.90      -99.90      -99.90      -99.90    
       -99.90      -99.90      -99.90      -99.90      -99.90      -99.90      -99.90      -99.90      -99.90      -99.90    
  38   -99.90      -99.90      -99.90      -99.90      -99.90      -99.90      -99.90      -99.90      -99.90      -99.90    
       -99.90      -99.90      -99.90      -99.90      -99.90      -99.90      -99.90      -99.90      -99.90      -99.90    
       -99.90      -99.90      -99.90      -99.90      -99.90      -99.90      -99.90      -99.90      -99.90      -99.90    
       -99.90      -99.90      -99.90      -99.90      -99.90      -99.90      -99.90      -99.90      -99.90      -99.90    
  39   -99.90      -99.90      -99.90      -99.90      -99.90      -99.90      -99.90      -99.90      -99.90      -99.90    
       -99.90      -99.90      -99.90      -99.90      -99.90      -99.90      -99.90      -99.90      -99.90      -99.90    
       -99.90      -99.90      -99.90      -99.90      -99.90      -99.90      -99.90      -99.90      -99.90      -99.90    
       -99.90      -99.90      -99.90      -99.90      -99.90      -99.90      -99.90      -99.90      -99.90      -99.90    
  40   -99.90      -99.90      -99.90      -99.90      -99.90      -99.90      -99.90      -99.90      -99.90      -99.90    
       -99.90      -99.90      -99.90      -99.90      -99.90      -99.90      -99.90      -99.90      -99.90      -99.90    
       -99.90      -99.90      -99.90      -99.90      -99.90      -99.90      -99.90      -99.90      -99.90      -99.90    
       -99.90      -99.90      -99.90      -99.90      -99.90      -99.90      -99.90      -99.90      -99.90      -99.90    
1
              HEAD IN LAYER  10 AT END OF TIME STEP  17 IN STRESS PERIOD    3
  ---------------------------------------------------------------------------

            1           2           3           4           5           6           7           8           9          10
           11          12          13          14          15          16          17          18          19          20
           21          22          23          24          25          26          27          28          29          30
           31          32          33          34          35          36          37          38          39          40
 ........................................................................................................................
   1    50.74       49.28       46.17       43.42       41.16       39.25       37.63       36.20       34.93       33.81    
        32.80       31.91       31.11       30.38       29.71       29.11       28.58       28.11       27.70       27.33    
        27.00       26.71       26.46       26.24       26.05       25.89       25.74       25.61       25.49       25.36    
        25.34       25.30       25.26       25.22       25.18       25.15       25.11       25.07       25.04       25.00    
   2    49.28       48.00       45.24       42.80       40.73       38.95       37.40       36.02       34.79       33.69    
        32.71       31.83       31.04       30.33       29.66       29.08       28.55       28.09       27.67       27.31    
        26.99       26.70       26.45       26.23       26.05       25.88       25.74       25.61       25.49       25.36    
        25.33       25.30       25.26       25.22       25.18       25.15       25.11       25.07       25.04       25.00    
   3    46.17       45.24       43.50       41.67       39.94       38.38       36.97       35.68       34.52       33.48    
        32.54       31.68       30.91       30.22       29.58       29.00       28.49       28.04       27.63       27.27    
        26.96       26.68       26.43       26.22       26.03       25.87       25.73       25.60       25.48       25.36    
        25.33       25.29       25.26       25.22       25.18       25.14       25.11       25.07       25.04       25.00    
   4    43.42       42.80       41.67       40.32       38.94       37.62       36.38       35.22       34.15       33.17    
        32.28       31.47       30.73       30.06       29.45       28.90       28.41       27.96       27.57       27.22    
        26.91       26.64       26.40       26.19       26.01       25.85       25.71       25.59       25.47       25.35    
        25.33       25.29       25.25       25.22       25.18       25.14       25.11       25.07       25.04       25.00    
   5    41.16       40.73       39.94       38.94       37.86       36.75       35.68       34.65       33.69       32.79    
        31.97       31.20       30.49       29.86       29.29       28.77       28.29       27.87       27.49       27.16    
        26.86       26.59       26.36       26.16       25.98       25.83       25.69       25.57       25.46       25.35    
        25.33       25.29       25.25       25.21       25.18       25.14       25.11       25.07       25.04       25.00    
   6    39.25       38.95       38.38       37.62       36.75       35.84       34.92       34.03       33.17       32.36    
        31.60       30.89       30.25       29.65       29.10       28.61       28.16       27.76       27.40       27.08    
        26.79       26.54       26.32       26.12       25.95       25.80       25.67       25.55       25.45       25.37    
        25.33       25.29       25.25       25.21       25.17       25.14       25.10       25.07       25.03       25.00    
   7    37.63       37.40       36.97       36.38       35.68       34.92       34.14       33.37       32.61       31.89    
        31.20       30.54       29.95       29.40       28.89       28.43       28.01       27.63       27.29       26.99    
        26.71       26.47       26.26       26.08       25.91       25.77       25.64       25.52       25.39       25.36    
        25.32       25.28       25.24       25.21       25.17       25.14       25.10       25.07       25.03       25.00    
   8    36.20       36.02       35.68       35.22       34.65       34.03       33.37       32.70       32.04       31.40    
        30.79       30.20       29.65       29.14       28.67       28.24       27.85       27.49       27.17       26.89    
        26.63       26.40       26.20       26.02       25.87       25.73       25.61       25.49       25.37       25.34    
        25.30       25.27       25.23       25.20       25.17       25.13       25.10       25.07       25.03       25.00    
   9    34.93       34.79       34.52       34.15       33.69       33.17       32.61       32.04       31.47       30.91    
        30.36       29.83       29.33       28.86       28.43       28.04       27.67       27.34       27.05       26.78    
        26.54       26.33       26.14       25.97       25.82       25.69       25.57       25.45       25.34       25.32    
        25.29       25.26       25.23       25.19       25.16       25.13       25.10       25.06       25.03       25.00    
  10    33.81       33.69       33.48       33.17       32.79       32.36       31.89       31.40       30.91       30.42    
        29.92       29.45       29.00       28.58       28.19       27.82       27.49       27.19       26.91       26.67    
        26.44       26.25       26.07       25.91       25.77       25.65       25.53       25.38       25.31       25.30    
        25.28       25.25       25.22       25.19       25.16       25.12       25.09       25.06       25.03       25.00    
  11    32.80       32.71       32.54       32.28       31.97       31.60       31.20       30.79       30.36       29.92    
        29.49       29.07       28.67       28.29       27.94       27.61       27.31       27.03       26.78       26.55    
        26.35       26.16       26.00       25.85       25.72       25.60       25.49       25.35       25.30       25.29    
        25.27       25.24       25.21       25.18       25.15       25.12       25.09       25.06       25.03       25.00    
  12    31.91       31.83       31.68       31.47       31.20       30.89       30.54       30.20       29.83       29.45    
        29.07       28.70       28.35       28.01       27.69       27.40       27.12       26.87       26.64       26.43    
        26.25       26.08       25.93       25.79       25.67       25.56       25.45       25.33       25.31       25.28    
        25.26       25.23       25.20       25.17       25.15       25.12       25.09       25.06       25.03       25.00    
  13    31.11       31.04       30.91       30.73       30.49       30.25       29.95       29.65       29.33       29.00    
        28.67       28.35       28.04       27.74       27.45       27.19       26.94       26.72       26.51       26.32    
        26.15       25.99       25.86       25.73       25.62       25.51       25.38       25.31       25.30       25.28    
        25.25       25.22       25.20       25.17       25.14       25.11       25.08       25.06       25.03       25.00    
  14    30.38       30.33       30.22       30.06       29.86       29.65       29.40       29.14       28.86       28.58    
        28.29       28.01       27.74       27.47       27.22       26.99       26.77       26.56       26.38       26.21    
        26.05       25.91       25.79       25.67       25.57       25.47       25.35       25.32       25.29       25.27    
        25.24       25.22       25.19       25.16       25.14       25.11       25.08       25.05       25.03       25.00    
  15    29.71       29.66       29.58       29.45       29.29       29.10       28.89       28.67       28.43       28.19    
        27.94       27.69       27.45       27.22       27.00       26.79       26.60       26.42       26.25       26.10    
        25.96       25.83       25.72       25.61       25.52       25.42       25.33       25.31       25.29       25.26    
        25.23       25.21       25.18       25.16       25.13       25.10       25.08       25.05       25.03       25.00    
  16    29.11       29.08       29.00       28.90       28.77       28.61       28.43       28.24       28.04       27.82    
        27.61       27.40       27.19       26.99       26.79       26.61       26.44       26.28       26.13       25.99    
        25.87       25.75       25.65       25.55       25.45       25.35       25.33       25.30       25.28       25.25    
        25.23       25.20       25.18       25.15       25.13       25.10       25.08       25.05       25.03       25.00    
  17    28.58       28.55       28.49       28.41       28.29       28.16       28.01       27.85       27.67       27.49    
        27.31       27.12       26.94       26.77       26.60       26.44       26.28       26.14       26.01       25.89    
        25.78       25.68       25.58       25.49       25.37       25.31       25.31       25.29       25.26       25.24    
        25.22       25.19       25.17       25.14       25.12       25.10       25.07       25.05       25.02       25.00    
  18    28.11       28.09       28.04       27.96       27.87       27.76       27.63       27.49       27.34       27.19    
        27.03       26.87       26.72       26.56       26.42       26.28       26.14       26.02       25.90       25.79    
        25.69       25.60       25.51       25.43       25.33       25.31       25.29       25.27       25.25       25.23    
        25.21       25.18       25.16       25.14       25.12       25.09       25.07       25.05       25.02       25.00    
  19    27.70       27.67       27.63       27.57       27.49       27.40       27.29       27.17       27.05       26.91    
        26.78       26.64       26.51       26.38       26.25       26.13       26.01       25.90       25.80       25.70    
        25.61       25.53       25.44       25.34       25.29       25.29       25.28       25.26       25.24       25.22    
        25.20       25.18       25.15       25.13       25.11       25.09       25.07       25.04       25.02       25.00    
  20    27.33       27.31       27.27       27.22       27.16       27.08       26.99       26.89       26.78       26.67    
        26.55       26.43       26.32       26.21       26.10       25.99       25.89       25.79       25.70       25.62    
        25.53       25.45       25.35       25.30       25.29       25.28       25.26       25.25       25.23       25.21    
        25.19       25.17       25.15       25.13       25.11       25.08       25.06       25.04       25.02       25.00    
  21    27.00       26.99       26.96       26.91       26.86       26.79       26.71       26.63       26.54       26.44    
        26.35       26.25       26.15       26.05       25.96       25.87       25.78       25.69       25.61       25.53    
        25.45       25.35       25.31       25.30       25.28       25.27       25.25       25.23       25.22       25.20    
        25.18       25.16       25.14       25.12       25.10       25.08       25.06       25.04       25.02       25.00    
  22    26.71       26.70       26.68       26.64       26.59       26.54       26.47       26.40       26.33       26.25    
        26.16       26.08       25.99       25.91       25.83       25.75       25.68       25.60       25.53       25.45    
        25.35       25.31       25.30       25.29       25.27       25.25       25.24       25.22       25.20       25.19    
        25.17       25.15       25.13       25.11       25.10       25.08       25.06       25.04       25.02       25.00    
  23    26.46       26.45       26.43       26.40       26.36       26.32       26.26       26.20       26.14       26.07    
        26.00       25.93       25.86       25.79       25.72       25.65       25.58       25.51       25.44       25.35    
        25.31       25.30       25.29       25.27       25.26       25.24       25.23       25.21       25.19       25.18    
        25.16       25.14       25.13       25.11       25.09       25.07       25.05       25.04       25.02       25.00    
  24    26.24       26.23       26.22       26.19       26.16       26.12       26.08       26.02       25.97       25.91    
        25.85       25.79       25.73       25.67       25.61       25.55       25.49       25.43       25.34       25.30    
        25.30       25.29       25.27       25.26       25.24       25.23       25.21       25.20       25.18       25.17    
        25.15       25.13       25.12       25.10       25.08       25.07       25.05       25.03       25.02       25.00    
  25    26.05       26.05       26.03       26.01       25.98       25.95       25.91       25.87       25.82       25.77    
        25.72       25.67       25.62       25.57       25.52       25.45       25.37       25.33       25.29       25.29    
        25.28       25.27       25.26       25.24       25.23       25.22       25.20       25.19       25.17       25.16    
        25.14       25.13       25.11       25.10       25.08       25.06       25.05       25.03       25.02       25.00    
  26    25.89       25.88       25.87       25.85       25.83       25.80       25.77       25.73       25.69       25.65    
        25.60       25.56       25.51       25.47       25.42       25.35       25.31       25.31       25.29       25.28    
        25.27       25.25       25.24       25.23       25.22       25.20       25.19       25.17       25.16       25.15    
        25.13       25.12       25.10       25.09       25.07       25.06       25.04       25.03       25.01       25.00    
  27    25.74       25.74       25.73       25.71       25.69       25.67       25.64       25.61       25.57       25.53    
        25.49       25.45       25.38       25.35       25.33       25.33       25.31       25.29       25.28       25.26    
        25.25       25.24       25.23       25.21       25.20       25.19       25.18       25.16       25.15       25.14    
        25.12       25.11       25.10       25.08       25.07       25.06       25.04       25.03       25.01       25.00    
  28    25.61       25.61       25.60       25.59       25.57       25.55       25.52       25.49       25.45       25.38    
        25.35       25.33       25.31       25.32       25.31       25.30       25.29       25.27       25.26       25.25    
        25.23       25.22       25.21       25.20       25.19       25.17       25.16       25.15       25.14       25.13    
        25.11       25.10       25.09       25.08       25.06       25.05       25.04       25.03       25.01       25.00    
  29    25.49       25.49       25.48       25.47       25.46       25.45       25.39       25.37       25.34       25.31    
        25.30       25.31       25.30       25.29       25.29       25.28       25.26       25.25       25.24       25.23    
        25.22       25.20       25.19       25.18       25.17       25.16       25.15       25.14       25.13       25.12    
        25.10       25.09       25.08       25.07       25.06       25.05       25.04       25.02       25.01       25.00    
  30    25.36       25.36       25.36       25.35       25.35       25.37       25.36       25.34       25.32       25.30    
        25.29       25.28       25.28       25.27       25.26       25.25       25.24       25.23       25.22       25.21    
        25.20       25.19       25.18       25.17       25.16       25.15       25.14       25.13       25.12       25.11    
        25.10       25.09       25.07       25.06       25.05       25.04       25.03       25.02       25.01       25.00    
  31    25.34       25.33       25.33       25.33       25.33       25.33       25.32       25.30       25.29       25.28    
        25.27       25.26       25.25       25.24       25.23       25.23       25.22       25.21       25.20       25.19    
        25.18       25.17       25.16       25.15       25.14       25.13       25.12       25.11       25.10       25.10    
        25.09       25.08       25.07       25.06       25.05       25.04       25.03       25.02       25.01       25.00    
  32    25.30       25.30       25.29       25.29       25.29       25.29       25.28       25.27       25.26       25.25    
        25.24       25.23       25.22       25.22       25.21       25.20       25.19       25.18       25.18       25.17    
        25.16       25.15       25.14       25.13       25.13       25.12       25.11       25.10       25.09       25.09    
        25.08       25.07       25.06       25.05       25.04       25.03       25.03       25.02       25.01       25.00    
  33    25.26       25.26       25.26       25.25       25.25       25.25       25.24       25.23       25.23       25.22    
        25.21       25.20       25.20       25.19       25.18       25.18       25.17       25.16       25.15       25.15    
        25.14       25.13       25.13       25.12       25.11       25.10       25.10       25.09       25.08       25.07    
        25.07       25.06       25.05       25.05       25.04       25.03       25.02       25.02       25.01       25.00    
  34    25.22       25.22       25.22       25.22       25.21       25.21       25.21       25.20       25.19       25.19    
        25.18       25.17       25.17       25.16       25.16       25.15       25.14       25.14       25.13       25.13    
        25.12       25.11       25.11       25.10       25.10       25.09       25.08       25.08       25.07       25.06    
        25.06       25.05       25.05       25.04       25.03       25.03       25.02       25.01       25.01       25.00    
  35    25.18       25.18       25.18       25.18       25.18       25.17       25.17       25.17       25.16       25.16    
        25.15       25.15       25.14       25.14       25.13       25.13       25.12       25.12       25.11       25.11    
        25.10       25.10       25.09       25.08       25.08       25.07       25.07       25.06       25.06       25.05    
        25.05       25.04       25.04       25.03       25.03       25.02       25.02       25.01       25.01       25.00    
  36    25.15       25.15       25.14       25.14       25.14       25.14       25.14       25.13       25.13       25.12    
        25.12       25.12       25.11       25.11       25.10       25.10       25.10       25.09       25.09       25.08    
        25.08       25.08       25.07       25.07       25.06       25.06       25.06       25.05       25.05       25.04    
        25.04       25.03       25.03       25.03       25.02       25.02       25.01       25.01       25.00       25.00    
  37    25.11       25.11       25.11       25.11       25.11       25.10       25.10       25.10       25.10       25.09    
        25.09       25.09       25.08       25.08       25.08       25.08       25.07       25.07       25.07       25.06    
        25.06       25.06       25.05       25.05       25.05       25.04       25.04       25.04       25.04       25.03    
        25.03       25.03       25.02       25.02       25.02       25.01       25.01       25.01       25.00       25.00    
  38    25.07       25.07       25.07       25.07       25.07       25.07       25.07       25.07       25.06       25.06    
        25.06       25.06       25.06       25.05       25.05       25.05       25.05       25.05       25.04       25.04    
        25.04       25.04       25.04       25.03       25.03       25.03       25.03       25.03       25.02       25.02    
        25.02       25.02       25.02       25.01       25.01       25.01       25.01       25.00       25.00       25.00    
  39    25.04       25.04       25.04       25.04       25.04       25.03       25.03       25.03       25.03       25.03    
        25.03       25.03       25.03       25.03       25.03       25.03       25.02       25.02       25.02       25.02    
        25.02       25.02       25.02       25.02       25.02       25.01       25.01       25.01       25.01       25.01    
        25.01       25.01       25.01       25.01       25.01       25.00       25.00       25.00       25.00       25.00    
  40    25.00       25.00       25.00       25.00       25.00       25.00       25.00       25.00       25.00       25.00    
        25.00       25.00       25.00       25.00       25.00       25.00       25.00       25.00       25.00       25.00    
        25.00       25.00       25.00       25.00       25.00       25.00       25.00       25.00       25.00       25.00    
        25.00       25.00       25.00       25.00       25.00       25.00       25.00       25.00       25.00       25.00    
1
              HEAD IN LAYER  11 AT END OF TIME STEP  17 IN STRESS PERIOD    3
  ---------------------------------------------------------------------------

            1           2           3           4           5           6           7           8           9          10
           11          12          13          14          15          16          17          18          19          20
           21          22          23          24          25          26          27          28          29          30
           31          32          33          34          35          36          37          38          39          40
 ........................................................................................................................
   1    50.38       48.95       46.07       43.39       41.15       39.25       37.62       36.20       34.93       33.81    
        32.81       31.91       31.11       30.38       29.71       29.12       28.59       28.12       27.70       27.33    
        27.00       26.72       26.47       26.25       26.05       25.89       25.74       25.61       25.49       25.37    
        25.34       25.30       25.26       25.22       25.18       25.15       25.11       25.07       25.04       25.00    
   2    48.95       47.70       45.15       42.77       40.72       38.94       37.39       36.02       34.79       33.70    
        32.71       31.83       31.04       30.33       29.67       29.08       28.56       28.09       27.68       27.31    
        26.99       26.70       26.46       26.24       26.05       25.88       25.74       25.61       25.49       25.37    
        25.33       25.30       25.26       25.22       25.18       25.15       25.11       25.07       25.04       25.00    
   3    46.07       45.15       43.46       41.65       39.93       38.37       36.96       35.68       34.52       33.48    
        32.54       31.68       30.92       30.22       29.58       29.01       28.50       28.04       27.64       27.28    
        26.96       26.68       26.43       26.22       26.03       25.87       25.73       25.60       25.48       25.37    
        25.33       25.29       25.26       25.22       25.18       25.14       25.11       25.07       25.04       25.00    
   4    43.39       42.77       41.65       40.31       38.94       37.62       36.38       35.22       34.15       33.18    
        32.28       31.47       30.73       30.06       29.45       28.90       28.41       27.97       27.57       27.23    
        26.92       26.64       26.40       26.19       26.01       25.85       25.71       25.59       25.48       25.36    
        25.33       25.29       25.25       25.22       25.18       25.14       25.11       25.07       25.04       25.00    
   5    41.15       40.72       39.93       38.94       37.85       36.75       35.68       34.65       33.69       32.80    
        31.97       31.20       30.50       29.87       29.29       28.77       28.30       27.87       27.50       27.16    
        26.86       26.60       26.37       26.16       25.98       25.83       25.69       25.57       25.46       25.36    
        25.33       25.29       25.25       25.21       25.18       25.14       25.11       25.07       25.04       25.00    
   6    39.25       38.94       38.37       37.62       36.75       35.84       34.92       34.03       33.17       32.36    
        31.60       30.90       30.25       29.65       29.11       28.61       28.16       27.76       27.40       27.08    
        26.79       26.54       26.32       26.12       25.95       25.80       25.67       25.55       25.45       25.37    
        25.33       25.29       25.25       25.21       25.17       25.14       25.10       25.07       25.03       25.00    
   7    37.62       37.39       36.96       36.38       35.68       34.92       34.14       33.37       32.62       31.89    
        31.20       30.55       29.96       29.41       28.90       28.44       28.01       27.63       27.29       26.99    
        26.72       26.48       26.26       26.08       25.91       25.77       25.64       25.52       25.40       25.36    
        25.32       25.28       25.24       25.21       25.17       25.14       25.10       25.07       25.03       25.00    
   8    36.20       36.02       35.68       35.22       34.65       34.03       33.37       32.70       32.04       31.40    
        30.79       30.20       29.65       29.14       28.67       28.24       27.85       27.50       27.18       26.89    
        26.63       26.41       26.20       26.03       25.87       25.73       25.61       25.49       25.38       25.34    
        25.30       25.27       25.23       25.20       25.17       25.13       25.10       25.07       25.03       25.00    
   9    34.93       34.79       34.52       34.15       33.69       33.17       32.62       32.04       31.47       30.91    
        30.36       29.83       29.33       28.87       28.43       28.04       27.68       27.35       27.05       26.78    
        26.54       26.33       26.14       25.97       25.82       25.69       25.57       25.45       25.35       25.32    
        25.29       25.26       25.23       25.19       25.16       25.13       25.10       25.06       25.03       25.00    
  10    33.81       33.70       33.48       33.18       32.80       32.36       31.89       31.40       30.91       30.42    
        29.92       29.45       29.00       28.58       28.19       27.83       27.50       27.19       26.92       26.67    
        26.45       26.25       26.07       25.91       25.77       25.65       25.53       25.39       25.32       25.30    
        25.28       25.25       25.22       25.19       25.16       25.12       25.09       25.06       25.03       25.00    
  11    32.81       32.71       32.54       32.28       31.97       31.60       31.20       30.79       30.36       29.92    
        29.49       29.07       28.67       28.30       27.94       27.61       27.31       27.03       26.78       26.55    
        26.35       26.17       26.00       25.86       25.72       25.60       25.49       25.36       25.30       25.29    
        25.27       25.24       25.21       25.18       25.15       25.12       25.09       25.06       25.03       25.00    
  12    31.91       31.83       31.68       31.47       31.20       30.90       30.55       30.20       29.83       29.45    
        29.07       28.71       28.35       28.01       27.70       27.40       27.13       26.88       26.65       26.44    
        26.25       26.08       25.93       25.79       25.67       25.56       25.45       25.34       25.31       25.28    
        25.26       25.23       25.20       25.17       25.15       25.12       25.09       25.06       25.03       25.00    
  13    31.11       31.04       30.92       30.73       30.50       30.25       29.96       29.65       29.33       29.00    
        28.67       28.35       28.04       27.74       27.46       27.19       26.95       26.72       26.51       26.32    
        26.15       26.00       25.86       25.73       25.62       25.51       25.39       25.32       25.30       25.28    
        25.25       25.22       25.20       25.17       25.14       25.11       25.08       25.06       25.03       25.00    
  14    30.38       30.33       30.22       30.06       29.87       29.65       29.41       29.14       28.87       28.58    
        28.30       28.01       27.74       27.48       27.23       26.99       26.77       26.57       26.38       26.21    
        26.05       25.91       25.79       25.67       25.57       25.47       25.36       25.32       25.29       25.27    
        25.24       25.22       25.19       25.16       25.14       25.11       25.08       25.05       25.03       25.00    
  15    29.71       29.67       29.58       29.45       29.29       29.11       28.90       28.67       28.43       28.19    
        27.94       27.70       27.46       27.23       27.00       26.80       26.60       26.42       26.25       26.10    
        25.96       25.83       25.72       25.61       25.52       25.42       25.34       25.31       25.29       25.26    
        25.23       25.21       25.18       25.16       25.13       25.10       25.08       25.05       25.03       25.00    
  16    29.12       29.08       29.01       28.90       28.77       28.61       28.44       28.24       28.04       27.83    
        27.61       27.40       27.19       26.99       26.80       26.61       26.44       26.28       26.13       25.99    
        25.87       25.75       25.65       25.55       25.45       25.36       25.33       25.30       25.28       25.25    
        25.23       25.20       25.18       25.15       25.13       25.10       25.08       25.05       25.03       25.00    
  17    28.59       28.56       28.50       28.41       28.30       28.16       28.01       27.85       27.68       27.50    
        27.31       27.13       26.95       26.77       26.60       26.44       26.29       26.15       26.01       25.89    
        25.78       25.68       25.58       25.49       25.38       25.32       25.31       25.29       25.26       25.24    
        25.22       25.19       25.17       25.14       25.12       25.10       25.07       25.05       25.02       25.00    
  18    28.12       28.09       28.04       27.97       27.87       27.76       27.63       27.50       27.35       27.19    
        27.03       26.88       26.72       26.57       26.42       26.28       26.15       26.02       25.90       25.80    
        25.70       25.60       25.51       25.43       25.34       25.31       25.29       25.27       25.25       25.23    
        25.21       25.18       25.16       25.14       25.12       25.09       25.07       25.05       25.02       25.00    
  19    27.70       27.68       27.64       27.57       27.50       27.40       27.29       27.18       27.05       26.92    
        26.78       26.65       26.51       26.38       26.25       26.13       26.01       25.90       25.80       25.71    
        25.61       25.53       25.44       25.35       25.30       25.29       25.28       25.26       25.24       25.22    
        25.20       25.18       25.15       25.13       25.11       25.09       25.07       25.04       25.02       25.00    
  20    27.33       27.31       27.28       27.23       27.16       27.08       26.99       26.89       26.78       26.67    
        26.55       26.44       26.32       26.21       26.10       25.99       25.89       25.80       25.71       25.62    
        25.53       25.45       25.36       25.31       25.29       25.28       25.26       25.25       25.23       25.21    
        25.19       25.17       25.15       25.13       25.11       25.08       25.06       25.04       25.02       25.00    
  21    27.00       26.99       26.96       26.92       26.86       26.79       26.72       26.63       26.54       26.45    
        26.35       26.25       26.15       26.05       25.96       25.87       25.78       25.70       25.61       25.53    
        25.45       25.36       25.31       25.30       25.28       25.27       25.25       25.23       25.22       25.20    
        25.18       25.16       25.14       25.12       25.10       25.08       25.06       25.04       25.02       25.00    
  22    26.72       26.70       26.68       26.64       26.60       26.54       26.48       26.41       26.33       26.25    
        26.17       26.08       26.00       25.91       25.83       25.75       25.68       25.60       25.53       25.45    
        25.36       25.31       25.30       25.29       25.27       25.25       25.24       25.22       25.20       25.19    
        25.17       25.15       25.13       25.11       25.10       25.08       25.06       25.04       25.02       25.00    
  23    26.47       26.46       26.43       26.40       26.37       26.32       26.26       26.20       26.14       26.07    
        26.00       25.93       25.86       25.79       25.72       25.65       25.58       25.51       25.44       25.36    
        25.31       25.30       25.29       25.27       25.26       25.24       25.23       25.21       25.19       25.18    
        25.16       25.14       25.13       25.11       25.09       25.07       25.05       25.04       25.02       25.00    
  24    26.25       26.24       26.22       26.19       26.16       26.12       26.08       26.03       25.97       25.91    
        25.86       25.79       25.73       25.67       25.61       25.55       25.49       25.43       25.35       25.31    
        25.30       25.29       25.27       25.26       25.24       25.23       25.21       25.20       25.18       25.17    
        25.15       25.13       25.12       25.10       25.08       25.07       25.05       25.03       25.02       25.00    
  25    26.05       26.05       26.03       26.01       25.98       25.95       25.91       25.87       25.82       25.77    
        25.72       25.67       25.62       25.57       25.52       25.45       25.38       25.34       25.30       25.29    
        25.28       25.27       25.26       25.24       25.23       25.22       25.20       25.19       25.17       25.16    
        25.14       25.13       25.11       25.10       25.08       25.06       25.05       25.03       25.02       25.00    
  26    25.89       25.88       25.87       25.85       25.83       25.80       25.77       25.73       25.69       25.65    
        25.60       25.56       25.51       25.47       25.42       25.36       25.32       25.31       25.29       25.28    
        25.27       25.25       25.24       25.23       25.22       25.20       25.19       25.17       25.16       25.15    
        25.13       25.12       25.10       25.09       25.07       25.06       25.04       25.03       25.01       25.00    
  27    25.74       25.74       25.73       25.71       25.69       25.67       25.64       25.61       25.57       25.53    
        25.49       25.45       25.39       25.36       25.34       25.33       25.31       25.29       25.28       25.26    
        25.25       25.24       25.23       25.21       25.20       25.19       25.18       25.16       25.15       25.14    
        25.12       25.11       25.10       25.08       25.07       25.06       25.04       25.03       25.01       25.00    
  28    25.61       25.61       25.60       25.59       25.57       25.55       25.52       25.49       25.45       25.39    
        25.36       25.34       25.32       25.32       25.31       25.30       25.29       25.27       25.26       25.25    
        25.23       25.22       25.21       25.20       25.19       25.17       25.16       25.15       25.14       25.13    
        25.11       25.10       25.09       25.08       25.06       25.05       25.04       25.03       25.01       25.00    
  29    25.49       25.49       25.48       25.48       25.46       25.45       25.40       25.38       25.35       25.32    
        25.30       25.31       25.30       25.29       25.29       25.28       25.26       25.25       25.24       25.23    
        25.22       25.20       25.19       25.18       25.17       25.16       25.15       25.14       25.13       25.12    
        25.10       25.09       25.08       25.07       25.06       25.05       25.04       25.02       25.01       25.00    
  30    25.37       25.37       25.37       25.36       25.36       25.37       25.36       25.34       25.32       25.30    
        25.29       25.28       25.28       25.27       25.26       25.25       25.24       25.23       25.22       25.21    
        25.20       25.19       25.18       25.17       25.16       25.15       25.14       25.13       25.12       25.11    
        25.10       25.09       25.07       25.06       25.05       25.04       25.03       25.02       25.01       25.00    
  31    25.34       25.33       25.33       25.33       25.33       25.33       25.32       25.30       25.29       25.28    
        25.27       25.26       25.25       25.24       25.23       25.23       25.22       25.21       25.20       25.19    
        25.18       25.17       25.16       25.15       25.14       25.13       25.12       25.11       25.10       25.10    
        25.09       25.08       25.07       25.06       25.05       25.04       25.03       25.02       25.01       25.00    
  32    25.30       25.30       25.29       25.29       25.29       25.29       25.28       25.27       25.26       25.25    
        25.24       25.23       25.22       25.22       25.21       25.20       25.19       25.18       25.18       25.17    
        25.16       25.15       25.14       25.13       25.13       25.12       25.11       25.10       25.09       25.09    
        25.08       25.07       25.06       25.05       25.04       25.03       25.03       25.02       25.01       25.00    
  33    25.26       25.26       25.26       25.25       25.25       25.25       25.24       25.23       25.23       25.22    
        25.21       25.20       25.20       25.19       25.18       25.18       25.17       25.16       25.15       25.15    
        25.14       25.13       25.13       25.12       25.11       25.10       25.10       25.09       25.08       25.07    
        25.07       25.06       25.05       25.05       25.04       25.03       25.02       25.02       25.01       25.00    
  34    25.22       25.22       25.22       25.22       25.21       25.21       25.21       25.20       25.19       25.19    
        25.18       25.17       25.17       25.16       25.16       25.15       25.14       25.14       25.13       25.13    
        25.12       25.11       25.11       25.10       25.10       25.09       25.08       25.08       25.07       25.06    
        25.06       25.05       25.05       25.04       25.03       25.03       25.02       25.01       25.01       25.00    
  35    25.18       25.18       25.18       25.18       25.18       25.17       25.17       25.17       25.16       25.16    
        25.15       25.15       25.14       25.14       25.13       25.13       25.12       25.12       25.11       25.11    
        25.10       25.10       25.09       25.08       25.08       25.07       25.07       25.06       25.06       25.05    
        25.05       25.04       25.04       25.03       25.03       25.02       25.02       25.01       25.01       25.00    
  36    25.15       25.15       25.14       25.14       25.14       25.14       25.14       25.13       25.13       25.12    
        25.12       25.12       25.11       25.11       25.10       25.10       25.10       25.09       25.09       25.08    
        25.08       25.08       25.07       25.07       25.06       25.06       25.06       25.05       25.05       25.04    
        25.04       25.03       25.03       25.03       25.02       25.02       25.01       25.01       25.00       25.00    
  37    25.11       25.11       25.11       25.11       25.11       25.10       25.10       25.10       25.10       25.09    
        25.09       25.09       25.08       25.08       25.08       25.08       25.07       25.07       25.07       25.06    
        25.06       25.06       25.05       25.05       25.05       25.04       25.04       25.04       25.04       25.03    
        25.03       25.03       25.02       25.02       25.02       25.01       25.01       25.01       25.00       25.00    
  38    25.07       25.07       25.07       25.07       25.07       25.07       25.07       25.07       25.06       25.06    
        25.06       25.06       25.06       25.05       25.05       25.05       25.05       25.05       25.04       25.04    
        25.04       25.04       25.04       25.03       25.03       25.03       25.03       25.03       25.02       25.02    
        25.02       25.02       25.02       25.01       25.01       25.01       25.01       25.00       25.00       25.00    
  39    25.04       25.04       25.04       25.04       25.04       25.03       25.03       25.03       25.03       25.03    
        25.03       25.03       25.03       25.03       25.03       25.03       25.02       25.02       25.02       25.02    
        25.02       25.02       25.02       25.02       25.02       25.01       25.01       25.01       25.01       25.01    
        25.01       25.01       25.01       25.01       25.01       25.00       25.00       25.00       25.00       25.00    
  40    25.00       25.00       25.00       25.00       25.00       25.00       25.00       25.00       25.00       25.00    
        25.00       25.00       25.00       25.00       25.00       25.00       25.00       25.00       25.00       25.00    
        25.00       25.00       25.00       25.00       25.00       25.00       25.00       25.00       25.00       25.00    
        25.00       25.00       25.00       25.00       25.00       25.00       25.00       25.00       25.00       25.00    
1
              HEAD IN LAYER  12 AT END OF TIME STEP  17 IN STRESS PERIOD    3
  ---------------------------------------------------------------------------

            1           2           3           4           5           6           7           8           9          10
           11          12          13          14          15          16          17          18          19          20
           21          22          23          24          25          26          27          28          29          30
           31          32          33          34          35          36          37          38          39          40
 ........................................................................................................................
   1    50.11       48.72       45.99       43.37       41.14       39.25       37.62       36.20       34.93       33.81    
        32.81       31.91       31.11       30.38       29.71       29.12       28.59       28.12       27.70       27.33    
        27.01       26.72       26.47       26.25       26.06       25.89       25.74       25.61       25.49       25.38    
        25.34       25.30       25.26       25.22       25.18       25.15       25.11       25.07       25.04       25.00    
   2    48.72       47.49       45.08       42.75       40.71       38.94       37.39       36.02       34.79       33.70    
        32.72       31.83       31.04       30.33       29.67       29.08       28.56       28.09       27.68       27.31    
        26.99       26.71       26.46       26.24       26.05       25.88       25.74       25.61       25.49       25.38    
        25.34       25.30       25.26       25.22       25.18       25.15       25.11       25.07       25.04       25.00    
   3    45.99       45.08       43.43       41.64       39.92       38.37       36.96       35.68       34.52       33.48    
        32.54       31.69       30.92       30.22       29.58       29.01       28.50       28.04       27.64       27.28    
        26.96       26.68       26.44       26.22       26.03       25.87       25.73       25.60       25.48       25.37    
        25.33       25.29       25.26       25.22       25.18       25.14       25.11       25.07       25.04       25.00    
   4    43.37       42.75       41.64       40.30       38.93       37.61       36.37       35.22       34.15       33.18    
        32.29       31.47       30.73       30.06       29.45       28.91       28.41       27.97       27.58       27.23    
        26.92       26.65       26.41       26.20       26.01       25.85       25.71       25.59       25.48       25.37    
        25.33       25.29       25.25       25.22       25.18       25.14       25.11       25.07       25.04       25.00    
   5    41.14       40.71       39.92       38.93       37.85       36.75       35.68       34.65       33.69       32.80    
        31.97       31.21       30.50       29.87       29.29       28.77       28.30       27.88       27.50       27.16    
        26.86       26.60       26.37       26.16       25.99       25.83       25.69       25.57       25.46       25.37    
        25.33       25.29       25.25       25.21       25.18       25.14       25.11       25.07       25.04       25.00    
   6    39.25       38.94       38.37       37.61       36.75       35.84       34.92       34.03       33.17       32.36    
        31.60       30.90       30.25       29.65       29.11       28.61       28.17       27.76       27.40       27.08    
        26.80       26.54       26.32       26.12       25.95       25.80       25.67       25.55       25.45       25.37    
        25.33       25.29       25.25       25.21       25.17       25.14       25.10       25.07       25.03       25.00    
   7    37.62       37.39       36.96       36.37       35.68       34.92       34.14       33.37       32.62       31.89    
        31.20       30.55       29.96       29.41       28.90       28.44       28.02       27.64       27.30       26.99    
        26.72       26.48       26.27       26.08       25.91       25.77       25.64       25.52       25.41       25.36    
        25.32       25.28       25.24       25.21       25.17       25.14       25.10       25.07       25.03       25.00    
   8    36.20       36.02       35.68       35.22       34.65       34.03       33.37       32.71       32.05       31.41    
        30.79       30.20       29.65       29.14       28.68       28.24       27.85       27.50       27.18       26.89    
        26.63       26.41       26.21       26.03       25.87       25.73       25.61       25.49       25.38       25.34    
        25.30       25.27       25.23       25.20       25.17       25.13       25.10       25.07       25.03       25.00    
   9    34.93       34.79       34.52       34.15       33.69       33.17       32.62       32.05       31.47       30.91    
        30.36       29.83       29.33       28.87       28.44       28.04       27.68       27.35       27.05       26.78    
        26.54       26.33       26.14       25.97       25.83       25.69       25.57       25.45       25.35       25.32    
        25.29       25.26       25.23       25.19       25.16       25.13       25.10       25.06       25.03       25.00    
  10    33.81       33.70       33.48       33.18       32.80       32.36       31.89       31.41       30.91       30.42    
        29.92       29.45       29.00       28.58       28.19       27.83       27.50       27.19       26.92       26.67    
        26.45       26.25       26.07       25.92       25.78       25.65       25.53       25.40       25.33       25.30    
        25.28       25.25       25.22       25.19       25.16       25.12       25.09       25.06       25.03       25.00    
  11    32.81       32.72       32.54       32.29       31.97       31.60       31.20       30.79       30.36       29.92    
        29.49       29.08       28.68       28.30       27.95       27.62       27.31       27.04       26.78       26.56    
        26.35       26.17       26.00       25.86       25.72       25.60       25.49       25.37       25.31       25.29    
        25.27       25.24       25.21       25.18       25.15       25.12       25.09       25.06       25.03       25.00    
  12    31.91       31.83       31.69       31.47       31.21       30.90       30.55       30.20       29.83       29.45    
        29.08       28.71       28.35       28.02       27.70       27.40       27.13       26.88       26.65       26.44    
        26.25       26.08       25.93       25.80       25.67       25.56       25.45       25.35       25.31       25.28    
        25.26       25.23       25.20       25.17       25.15       25.12       25.09       25.06       25.03       25.00    
  13    31.11       31.04       30.92       30.73       30.50       30.25       29.96       29.65       29.33       29.00    
        28.68       28.35       28.04       27.74       27.46       27.19       26.95       26.72       26.51       26.32    
        26.15       26.00       25.86       25.73       25.62       25.51       25.39       25.33       25.30       25.28    
        25.25       25.22       25.20       25.17       25.14       25.11       25.08       25.06       25.03       25.00    
  14    30.38       30.33       30.22       30.06       29.87       29.65       29.41       29.14       28.87       28.58    
        28.30       28.02       27.74       27.48       27.23       26.99       26.77       26.57       26.38       26.21    
        26.06       25.92       25.79       25.67       25.57       25.47       25.37       25.32       25.29       25.27    
        25.24       25.22       25.19       25.16       25.14       25.11       25.08       25.05       25.03       25.00    
  15    29.71       29.67       29.58       29.45       29.29       29.11       28.90       28.68       28.44       28.19    
        27.95       27.70       27.46       27.23       27.01       26.80       26.60       26.42       26.25       26.10    
        25.96       25.83       25.72       25.61       25.52       25.42       25.34       25.31       25.29       25.26    
        25.23       25.21       25.18       25.16       25.13       25.10       25.08       25.05       25.03       25.00    
  16    29.12       29.08       29.01       28.91       28.77       28.61       28.44       28.24       28.04       27.83    
        27.62       27.40       27.19       26.99       26.80       26.61       26.44       26.28       26.13       25.99    
        25.87       25.75       25.65       25.55       25.45       25.37       25.33       25.30       25.28       25.25    
        25.23       25.20       25.18       25.15       25.13       25.10       25.08       25.05       25.03       25.00    
  17    28.59       28.56       28.50       28.41       28.30       28.17       28.02       27.85       27.68       27.50    
        27.31       27.13       26.95       26.77       26.60       26.44       26.29       26.15       26.01       25.89    
        25.78       25.68       25.58       25.49       25.38       25.33       25.31       25.29       25.26       25.24    
        25.22       25.19       25.17       25.14       25.12       25.10       25.07       25.05       25.02       25.00    
  18    28.12       28.09       28.04       27.97       27.88       27.76       27.64       27.50       27.35       27.19    
        27.04       26.88       26.72       26.57       26.42       26.28       26.15       26.02       25.91       25.80    
        25.70       25.60       25.51       25.43       25.34       25.31       25.29       25.27       25.25       25.23    
        25.21       25.18       25.16       25.14       25.12       25.09       25.07       25.05       25.02       25.00    
  19    27.70       27.68       27.64       27.58       27.50       27.40       27.30       27.18       27.05       26.92    
        26.78       26.65       26.51       26.38       26.25       26.13       26.01       25.91       25.80       25.71    
        25.61       25.53       25.44       25.36       25.31       25.29       25.28       25.26       25.24       25.22    
        25.20       25.18       25.15       25.13       25.11       25.09       25.07       25.04       25.02       25.00    
  20    27.33       27.31       27.28       27.23       27.16       27.08       26.99       26.89       26.78       26.67    
        26.56       26.44       26.32       26.21       26.10       25.99       25.89       25.80       25.71       25.62    
        25.53       25.45       25.36       25.31       25.30       25.28       25.26       25.25       25.23       25.21    
        25.19       25.17       25.15       25.13       25.11       25.08       25.06       25.04       25.02       25.00    
  21    27.01       26.99       26.96       26.92       26.86       26.80       26.72       26.63       26.54       26.45    
        26.35       26.25       26.15       26.06       25.96       25.87       25.78       25.70       25.61       25.53    
        25.45       25.37       25.32       25.30       25.28       25.27       25.25       25.23       25.22       25.20    
        25.18       25.16       25.14       25.12       25.10       25.08       25.06       25.04       25.02       25.00    
  22    26.72       26.71       26.68       26.65       26.60       26.54       26.48       26.41       26.33       26.25    
        26.17       26.08       26.00       25.92       25.83       25.75       25.68       25.60       25.53       25.45    
        25.37       25.32       25.30       25.29       25.27       25.25       25.24       25.22       25.20       25.19    
        25.17       25.15       25.13       25.11       25.10       25.08       25.06       25.04       25.02       25.00    
  23    26.47       26.46       26.44       26.41       26.37       26.32       26.27       26.21       26.14       26.07    
        26.00       25.93       25.86       25.79       25.72       25.65       25.58       25.51       25.44       25.36    
        25.32       25.30       25.29       25.27       25.26       25.24       25.23       25.21       25.19       25.18    
        25.16       25.14       25.13       25.11       25.09       25.07       25.05       25.04       25.02       25.00    
  24    26.25       26.24       26.22       26.20       26.16       26.12       26.08       26.03       25.97       25.92    
        25.86       25.80       25.73       25.67       25.61       25.55       25.49       25.43       25.36       25.31    
        25.30       25.29       25.27       25.26       25.24       25.23       25.21       25.20       25.18       25.17    
        25.15       25.13       25.12       25.10       25.08       25.07       25.05       25.03       25.02       25.00    
  25    26.06       26.05       26.03       26.01       25.99       25.95       25.91       25.87       25.83       25.78    
        25.72       25.67       25.62       25.57       25.52       25.45       25.38       25.34       25.31       25.30    
        25.28       25.27       25.26       25.24       25.23       25.22       25.20       25.19       25.17       25.16    
        25.14       25.13       25.11       25.10       25.08       25.06       25.05       25.03       25.02       25.00    
  26    25.89       25.88       25.87       25.85       25.83       25.80       25.77       25.73       25.69       25.65    
        25.60       25.56       25.51       25.47       25.42       25.37       25.33       25.31       25.29       25.28    
        25.27       25.25       25.24       25.23       25.22       25.20       25.19       25.17       25.16       25.15    
        25.13       25.12       25.10       25.09       25.07       25.06       25.04       25.03       25.01       25.00    
  27    25.74       25.74       25.73       25.71       25.69       25.67       25.64       25.61       25.57       25.53    
        25.49       25.45       25.39       25.37       25.34       25.33       25.31       25.29       25.28       25.26    
        25.25       25.24       25.23       25.21       25.20       25.19       25.18       25.16       25.15       25.14    
        25.12       25.11       25.10       25.08       25.07       25.06       25.04       25.03       25.01       25.00    
  28    25.61       25.61       25.60       25.59       25.57       25.55       25.52       25.49       25.45       25.40    
        25.37       25.35       25.33       25.32       25.31       25.30       25.29       25.27       25.26       25.25    
        25.23       25.22       25.21       25.20       25.19       25.17       25.16       25.15       25.14       25.13    
        25.11       25.10       25.09       25.08       25.06       25.05       25.04       25.03       25.01       25.00    
  29    25.49       25.49       25.48       25.48       25.46       25.45       25.41       25.38       25.35       25.33    
        25.31       25.31       25.30       25.29       25.29       25.28       25.26       25.25       25.24       25.23    
        25.22       25.20       25.19       25.18       25.17       25.16       25.15       25.14       25.13       25.12    
        25.10       25.09       25.08       25.07       25.06       25.05       25.04       25.02       25.01       25.00    
  30    25.38       25.38       25.37       25.37       25.37       25.37       25.36       25.34       25.32       25.30    
        25.29       25.28       25.28       25.27       25.26       25.25       25.24       25.23       25.22       25.21    
        25.20       25.19       25.18       25.17       25.16       25.15       25.14       25.13       25.12       25.11    
        25.10       25.09       25.07       25.06       25.05       25.04       25.03       25.02       25.01       25.00    
  31    25.34       25.34       25.33       25.33       25.33       25.33       25.32       25.30       25.29       25.28    
        25.27       25.26       25.25       25.24       25.23       25.23       25.22       25.21       25.20       25.19    
        25.18       25.17       25.16       25.15       25.14       25.13       25.12       25.11       25.10       25.10    
        25.09       25.08       25.07       25.06       25.05       25.04       25.03       25.02       25.01       25.00    
  32    25.30       25.30       25.29       25.29       25.29       25.29       25.28       25.27       25.26       25.25    
        25.24       25.23       25.22       25.22       25.21       25.20       25.19       25.18       25.18       25.17    
        25.16       25.15       25.14       25.13       25.13       25.12       25.11       25.10       25.09       25.09    
        25.08       25.07       25.06       25.05       25.04       25.03       25.03       25.02       25.01       25.00    
  33    25.26       25.26       25.26       25.25       25.25       25.25       25.24       25.23       25.23       25.22    
        25.21       25.20       25.20       25.19       25.18       25.18       25.17       25.16       25.15       25.15    
        25.14       25.13       25.13       25.12       25.11       25.10       25.10       25.09       25.08       25.07    
        25.07       25.06       25.05       25.05       25.04       25.03       25.02       25.02       25.01       25.00    
  34    25.22       25.22       25.22       25.22       25.21       25.21       25.21       25.20       25.19       25.19    
        25.18       25.17       25.17       25.16       25.16       25.15       25.14       25.14       25.13       25.13    
        25.12       25.11       25.11       25.10       25.10       25.09       25.08       25.08       25.07       25.06    
        25.06       25.05       25.05       25.04       25.03       25.03       25.02       25.01       25.01       25.00    
  35    25.18       25.18       25.18       25.18       25.18       25.17       25.17       25.17       25.16       25.16    
        25.15       25.15       25.14       25.14       25.13       25.13       25.12       25.12       25.11       25.11    
        25.10       25.10       25.09       25.08       25.08       25.07       25.07       25.06       25.06       25.05    
        25.05       25.04       25.04       25.03       25.03       25.02       25.02       25.01       25.01       25.00    
  36    25.15       25.15       25.14       25.14       25.14       25.14       25.14       25.13       25.13       25.12    
        25.12       25.12       25.11       25.11       25.10       25.10       25.10       25.09       25.09       25.08    
        25.08       25.08       25.07       25.07       25.06       25.06       25.06       25.05       25.05       25.04    
        25.04       25.03       25.03       25.03       25.02       25.02       25.01       25.01       25.00       25.00    
  37    25.11       25.11       25.11       25.11       25.11       25.10       25.10       25.10       25.10       25.09    
        25.09       25.09       25.08       25.08       25.08       25.08       25.07       25.07       25.07       25.06    
        25.06       25.06       25.05       25.05       25.05       25.04       25.04       25.04       25.04       25.03    
        25.03       25.03       25.02       25.02       25.02       25.01       25.01       25.01       25.00       25.00    
  38    25.07       25.07       25.07       25.07       25.07       25.07       25.07       25.07       25.06       25.06    
        25.06       25.06       25.06       25.05       25.05       25.05       25.05       25.05       25.04       25.04    
        25.04       25.04       25.04       25.03       25.03       25.03       25.03       25.03       25.02       25.02    
        25.02       25.02       25.02       25.01       25.01       25.01       25.01       25.00       25.00       25.00    
  39    25.04       25.04       25.04       25.04       25.04       25.03       25.03       25.03       25.03       25.03    
        25.03       25.03       25.03       25.03       25.03       25.03       25.02       25.02       25.02       25.02    
        25.02       25.02       25.02       25.02       25.02       25.01       25.01       25.01       25.01       25.01    
        25.01       25.01       25.01       25.01       25.01       25.00       25.00       25.00       25.00       25.00    
  40    25.00       25.00       25.00       25.00       25.00       25.00       25.00       25.00       25.00       25.00    
        25.00       25.00       25.00       25.00       25.00       25.00       25.00       25.00       25.00       25.00    
        25.00       25.00       25.00       25.00       25.00       25.00       25.00       25.00       25.00       25.00    
        25.00       25.00       25.00       25.00       25.00       25.00       25.00       25.00       25.00       25.00    
1
              HEAD IN LAYER  13 AT END OF TIME STEP  17 IN STRESS PERIOD    3
  ---------------------------------------------------------------------------

            1           2           3           4           5           6           7           8           9          10
           11          12          13          14          15          16          17          18          19          20
           21          22          23          24          25          26          27          28          29          30
           31          32          33          34          35          36          37          38          39          40
 ........................................................................................................................
   1    49.94       48.56       45.93       43.35       41.13       39.24       37.62       36.19       34.93       33.81    
        32.81       31.91       31.11       30.38       29.72       29.12       28.59       28.12       27.70       27.33    
        27.01       26.72       26.47       26.25       26.06       25.89       25.74       25.61       25.49       25.38    
        25.34       25.30       25.26       25.22       25.18       25.15       25.11       25.07       25.04       25.00    
   2    48.56       47.35       45.04       42.74       40.70       38.93       37.39       36.02       34.79       33.70    
        32.72       31.84       31.04       30.33       29.67       29.08       28.56       28.10       27.68       27.32    
        26.99       26.71       26.46       26.24       26.05       25.88       25.74       25.61       25.49       25.38    
        25.34       25.30       25.26       25.22       25.18       25.15       25.11       25.07       25.04       25.00    
   3    45.93       45.04       43.41       41.63       39.92       38.37       36.96       35.68       34.52       33.48    
        32.54       31.69       30.92       30.22       29.58       29.01       28.50       28.05       27.64       27.28    
        26.96       26.68       26.44       26.22       26.04       25.87       25.73       25.60       25.49       25.38    
        25.33       25.29       25.26       25.22       25.18       25.14       25.11       25.07       25.04       25.00    
   4    43.35       42.74       41.63       40.30       38.93       37.61       36.37       35.22       34.15       33.18    
        32.29       31.47       30.73       30.07       29.46       28.91       28.41       27.97       27.58       27.23    
        26.92       26.65       26.41       26.20       26.01       25.85       25.71       25.59       25.48       25.37    
        25.33       25.29       25.25       25.22       25.18       25.14       25.11       25.07       25.04       25.00    
   5    41.13       40.70       39.92       38.93       37.85       36.75       35.68       34.65       33.69       32.80    
        31.97       31.21       30.50       29.87       29.30       28.77       28.30       27.88       27.50       27.16    
        26.86       26.60       26.37       26.17       25.99       25.83       25.69       25.57       25.46       25.37    
        25.33       25.29       25.25       25.21       25.18       25.14       25.11       25.07       25.04       25.00    
   6    39.24       38.93       38.37       37.61       36.75       35.84       34.92       34.03       33.17       32.36    
        31.61       30.90       30.25       29.65       29.11       28.62       28.17       27.77       27.41       27.08    
        26.80       26.54       26.32       26.13       25.95       25.80       25.67       25.55       25.45       25.38    
        25.33       25.29       25.25       25.21       25.17       25.14       25.10       25.07       25.03       25.00    
   7    37.62       37.39       36.96       36.37       35.68       34.92       34.14       33.37       32.62       31.89    
        31.21       30.56       29.96       29.41       28.90       28.44       28.02       27.64       27.30       26.99    
        26.72       26.48       26.27       26.08       25.92       25.77       25.64       25.52       25.41       25.36    
        25.32       25.28       25.24       25.21       25.17       25.14       25.10       25.07       25.03       25.00    
   8    36.19       36.02       35.68       35.22       34.65       34.03       33.37       32.71       32.05       31.41    
        30.79       30.21       29.66       29.15       28.68       28.25       27.85       27.50       27.18       26.89    
        26.64       26.41       26.21       26.03       25.87       25.73       25.61       25.49       25.39       25.34    
        25.30       25.27       25.23       25.20       25.17       25.13       25.10       25.07       25.03       25.00    
   9    34.93       34.79       34.52       34.15       33.69       33.17       32.62       32.05       31.47       30.91    
        30.36       29.83       29.33       28.87       28.44       28.04       27.68       27.35       27.05       26.78    
        26.55       26.33       26.14       25.97       25.83       25.69       25.57       25.46       25.36       25.32    
        25.29       25.26       25.23       25.19       25.16       25.13       25.10       25.06       25.03       25.00    
  10    33.81       33.70       33.48       33.18       32.80       32.36       31.89       31.41       30.91       30.42    
        29.93       29.45       29.01       28.59       28.19       27.83       27.50       27.20       26.92       26.67    
        26.45       26.25       26.07       25.92       25.78       25.65       25.53       25.40       25.33       25.30    
        25.28       25.25       25.22       25.19       25.16       25.12       25.09       25.06       25.03       25.00    
  11    32.81       32.72       32.54       32.29       31.97       31.61       31.21       30.79       30.36       29.93    
        29.49       29.08       28.68       28.30       27.95       27.62       27.32       27.04       26.79       26.56    
        26.35       26.17       26.00       25.86       25.73       25.60       25.49       25.37       25.31       25.29    
        25.27       25.24       25.21       25.18       25.15       25.12       25.09       25.06       25.03       25.00    
  12    31.91       31.84       31.69       31.47       31.21       30.90       30.56       30.21       29.83       29.45    
        29.08       28.71       28.36       28.02       27.70       27.41       27.13       26.88       26.65       26.44    
        26.25       26.08       25.93       25.80       25.67       25.56       25.45       25.35       25.31       25.28    
        25.26       25.23       25.20       25.17       25.15       25.12       25.09       25.06       25.03       25.00    
  13    31.11       31.04       30.92       30.73       30.50       30.25       29.96       29.66       29.33       29.01    
        28.68       28.36       28.04       27.74       27.46       27.20       26.95       26.72       26.51       26.32    
        26.15       26.00       25.86       25.74       25.62       25.51       25.40       25.33       25.30       25.28    
        25.25       25.22       25.20       25.17       25.14       25.11       25.08       25.06       25.03       25.00    
  14    30.38       30.33       30.22       30.07       29.87       29.65       29.41       29.15       28.87       28.59    
        28.30       28.02       27.74       27.48       27.23       26.99       26.77       26.57       26.38       26.21    
        26.06       25.92       25.79       25.67       25.57       25.47       25.37       25.32       25.29       25.27    
        25.24       25.22       25.19       25.16       25.14       25.11       25.08       25.05       25.03       25.00    
  15    29.72       29.67       29.58       29.46       29.30       29.11       28.90       28.68       28.44       28.19    
        27.95       27.70       27.46       27.23       27.01       26.80       26.60       26.42       26.25       26.10    
        25.96       25.83       25.72       25.61       25.52       25.42       25.35       25.31       25.29       25.26    
        25.23       25.21       25.18       25.16       25.13       25.10       25.08       25.05       25.03       25.00    
  16    29.12       29.08       29.01       28.91       28.77       28.62       28.44       28.25       28.04       27.83    
        27.62       27.41       27.20       26.99       26.80       26.62       26.44       26.28       26.13       26.00    
        25.87       25.75       25.65       25.55       25.46       25.37       25.33       25.30       25.28       25.25    
        25.23       25.20       25.18       25.15       25.13       25.10       25.08       25.05       25.03       25.00    
  17    28.59       28.56       28.50       28.41       28.30       28.17       28.02       27.85       27.68       27.50    
        27.32       27.13       26.95       26.77       26.60       26.44       26.29       26.15       26.02       25.89    
        25.78       25.68       25.58       25.49       25.39       25.33       25.31       25.29       25.26       25.24    
        25.22       25.19       25.17       25.14       25.12       25.10       25.07       25.05       25.02       25.00    
  18    28.12       28.10       28.05       27.97       27.88       27.77       27.64       27.50       27.35       27.20    
        27.04       26.88       26.72       26.57       26.42       26.28       26.15       26.02       25.91       25.80    
        25.70       25.60       25.51       25.43       25.35       25.31       25.29       25.27       25.25       25.23    
        25.21       25.18       25.16       25.14       25.12       25.09       25.07       25.05       25.02       25.00    
  19    27.70       27.68       27.64       27.58       27.50       27.41       27.30       27.18       27.05       26.92    
        26.79       26.65       26.51       26.38       26.25       26.13       26.02       25.91       25.80       25.71    
        25.61       25.53       25.44       25.36       25.31       25.29       25.28       25.26       25.24       25.22    
        25.20       25.18       25.15       25.13       25.11       25.09       25.07       25.04       25.02       25.00    
  20    27.33       27.32       27.28       27.23       27.16       27.08       26.99       26.89       26.78       26.67    
        26.56       26.44       26.32       26.21       26.10       26.00       25.89       25.80       25.71       25.62    
        25.53       25.45       25.37       25.32       25.30       25.28       25.26       25.25       25.23       25.21    
        25.19       25.17       25.15       25.13       25.11       25.08       25.06       25.04       25.02       25.00    
  21    27.01       26.99       26.96       26.92       26.86       26.80       26.72       26.64       26.55       26.45    
        26.35       26.25       26.15       26.06       25.96       25.87       25.78       25.70       25.61       25.53    
        25.45       25.37       25.32       25.30       25.28       25.27       25.25       25.23       25.22       25.20    
        25.18       25.16       25.14       25.12       25.10       25.08       25.06       25.04       25.02       25.00    
  22    26.72       26.71       26.68       26.65       26.60       26.54       26.48       26.41       26.33       26.25    
        26.17       26.08       26.00       25.92       25.83       25.75       25.68       25.60       25.53       25.45    
        25.37       25.32       25.30       25.29       25.27       25.25       25.24       25.22       25.20       25.19    
        25.17       25.15       25.13       25.11       25.10       25.08       25.06       25.04       25.02       25.00    
  23    26.47       26.46       26.44       26.41       26.37       26.32       26.27       26.21       26.14       26.07    
        26.00       25.93       25.86       25.79       25.72       25.65       25.58       25.51       25.44       25.37    
        25.32       25.30       25.29       25.27       25.26       25.24       25.23       25.21       25.19       25.18    
        25.16       25.14       25.13       25.11       25.09       25.07       25.05       25.04       25.02       25.00    
  24    26.25       26.24       26.22       26.20       26.17       26.13       26.08       26.03       25.97       25.92    
        25.86       25.80       25.74       25.67       25.61       25.55       25.49       25.43       25.36       25.32    
        25.30       25.29       25.27       25.26       25.24       25.23       25.21       25.20       25.18       25.17    
        25.15       25.13       25.12       25.10       25.08       25.07       25.05       25.03       25.02       25.00    
  25    26.06       26.05       26.04       26.01       25.99       25.95       25.92       25.87       25.83       25.78    
        25.73       25.67       25.62       25.57       25.52       25.46       25.39       25.35       25.31       25.30    
        25.28       25.27       25.26       25.24       25.23       25.22       25.20       25.19       25.17       25.16    
        25.14       25.13       25.11       25.10       25.08       25.06       25.05       25.03       25.02       25.00    
  26    25.89       25.88       25.87       25.85       25.83       25.80       25.77       25.73       25.69       25.65    
        25.60       25.56       25.51       25.47       25.42       25.37       25.33       25.31       25.29       25.28    
        25.27       25.25       25.24       25.23       25.22       25.20       25.19       25.17       25.16       25.15    
        25.13       25.12       25.10       25.09       25.07       25.06       25.04       25.03       25.01       25.00    
  27    25.74       25.74       25.73       25.71       25.69       25.67       25.64       25.61       25.57       25.53    
        25.49       25.45       25.40       25.37       25.35       25.33       25.31       25.29       25.28       25.26    
        25.25       25.24       25.23       25.21       25.20       25.19       25.18       25.16       25.15       25.14    
        25.12       25.11       25.10       25.08       25.07       25.06       25.04       25.03       25.01       25.00    
  28    25.61       25.61       25.60       25.59       25.57       25.55       25.52       25.49       25.46       25.40    
        25.37       25.35       25.33       25.32       25.31       25.30       25.29       25.27       25.26       25.25    
        25.23       25.22       25.21       25.20       25.19       25.17       25.16       25.15       25.14       25.13    
        25.11       25.10       25.09       25.08       25.06       25.05       25.04       25.03       25.01       25.00    
  29    25.49       25.49       25.49       25.48       25.46       25.45       25.41       25.39       25.36       25.33    
        25.31       25.31       25.30       25.29       25.29       25.28       25.26       25.25       25.24       25.23    
        25.22       25.20       25.19       25.18       25.17       25.16       25.15       25.14       25.13       25.12    
        25.10       25.09       25.08       25.07       25.06       25.05       25.04       25.02       25.01       25.00    
  30    25.38       25.38       25.38       25.37       25.37       25.38       25.36       25.34       25.32       25.30    
        25.29       25.28       25.28       25.27       25.26       25.25       25.24       25.23       25.22       25.21    
        25.20       25.19       25.18       25.17       25.16       25.15       25.14       25.13       25.12       25.11    
        25.10       25.09       25.07       25.06       25.05       25.04       25.03       25.02       25.01       25.00    
  31    25.34       25.34       25.33       25.33       25.33       25.33       25.32       25.30       25.29       25.28    
        25.27       25.26       25.25       25.24       25.23       25.23       25.22       25.21       25.20       25.19    
        25.18       25.17       25.16       25.15       25.14       25.13       25.12       25.11       25.10       25.10    
        25.09       25.08       25.07       25.06       25.05       25.04       25.03       25.02       25.01       25.00    
  32    25.30       25.30       25.29       25.29       25.29       25.29       25.28       25.27       25.26       25.25    
        25.24       25.23       25.22       25.22       25.21       25.20       25.19       25.18       25.18       25.17    
        25.16       25.15       25.14       25.13       25.13       25.12       25.11       25.10       25.09       25.09    
        25.08       25.07       25.06       25.05       25.04       25.03       25.03       25.02       25.01       25.00    
  33    25.26       25.26       25.26       25.25       25.25       25.25       25.24       25.23       25.23       25.22    
        25.21       25.20       25.20       25.19       25.18       25.18       25.17       25.16       25.15       25.15    
        25.14       25.13       25.13       25.12       25.11       25.10       25.10       25.09       25.08       25.07    
        25.07       25.06       25.05       25.05       25.04       25.03       25.02       25.02       25.01       25.00    
  34    25.22       25.22       25.22       25.22       25.21       25.21       25.21       25.20       25.19       25.19    
        25.18       25.17       25.17       25.16       25.16       25.15       25.14       25.14       25.13       25.13    
        25.12       25.11       25.11       25.10       25.10       25.09       25.08       25.08       25.07       25.06    
        25.06       25.05       25.05       25.04       25.03       25.03       25.02       25.01       25.01       25.00    
  35    25.18       25.18       25.18       25.18       25.18       25.17       25.17       25.17       25.16       25.16    
        25.15       25.15       25.14       25.14       25.13       25.13       25.12       25.12       25.11       25.11    
        25.10       25.10       25.09       25.08       25.08       25.07       25.07       25.06       25.06       25.05    
        25.05       25.04       25.04       25.03       25.03       25.02       25.02       25.01       25.01       25.00    
  36    25.15       25.15       25.14       25.14       25.14       25.14       25.14       25.13       25.13       25.12    
        25.12       25.12       25.11       25.11       25.10       25.10       25.10       25.09       25.09       25.08    
        25.08       25.08       25.07       25.07       25.06       25.06       25.06       25.05       25.05       25.04    
        25.04       25.03       25.03       25.03       25.02       25.02       25.01       25.01       25.00       25.00    
  37    25.11       25.11       25.11       25.11       25.11       25.10       25.10       25.10       25.10       25.09    
        25.09       25.09       25.08       25.08       25.08       25.08       25.07       25.07       25.07       25.06    
        25.06       25.06       25.05       25.05       25.05       25.04       25.04       25.04       25.04       25.03    
        25.03       25.03       25.02       25.02       25.02       25.01       25.01       25.01       25.00       25.00    
  38    25.07       25.07       25.07       25.07       25.07       25.07       25.07       25.07       25.06       25.06    
        25.06       25.06       25.06       25.05       25.05       25.05       25.05       25.05       25.04       25.04    
        25.04       25.04       25.04       25.03       25.03       25.03       25.03       25.03       25.02       25.02    
        25.02       25.02       25.02       25.01       25.01       25.01       25.01       25.00       25.00       25.00    
  39    25.04       25.04       25.04       25.04       25.04       25.03       25.03       25.03       25.03       25.03    
        25.03       25.03       25.03       25.03       25.03       25.03       25.02       25.02       25.02       25.02    
        25.02       25.02       25.02       25.02       25.02       25.01       25.01       25.01       25.01       25.01    
        25.01       25.01       25.01       25.01       25.01       25.00       25.00       25.00       25.00       25.00    
  40    25.00       25.00       25.00       25.00       25.00       25.00       25.00       25.00       25.00       25.00    
        25.00       25.00       25.00       25.00       25.00       25.00       25.00       25.00       25.00       25.00    
        25.00       25.00       25.00       25.00       25.00       25.00       25.00       25.00       25.00       25.00    
        25.00       25.00       25.00       25.00       25.00       25.00       25.00       25.00       25.00       25.00    
1
              HEAD IN LAYER  14 AT END OF TIME STEP  17 IN STRESS PERIOD    3
  ---------------------------------------------------------------------------

            1           2           3           4           5           6           7           8           9          10
           11          12          13          14          15          16          17          18          19          20
           21          22          23          24          25          26          27          28          29          30
           31          32          33          34          35          36          37          38          39          40
 ........................................................................................................................
   1    49.85       48.48       45.90       43.34       41.13       39.24       37.62       36.19       34.93       33.81    
        32.81       31.91       31.11       30.38       29.72       29.12       28.59       28.12       27.70       27.33    
        27.01       26.72       26.47       26.25       26.06       25.89       25.74       25.61       25.49       25.39    
        25.34       25.30       25.26       25.22       25.18       25.15       25.11       25.07       25.04       25.00    
   2    48.48       47.28       45.01       42.73       40.70       38.93       37.39       36.02       34.79       33.70    
        32.72       31.84       31.05       30.33       29.67       29.09       28.56       28.10       27.68       27.32    
        26.99       26.71       26.46       26.24       26.05       25.88       25.74       25.61       25.49       25.38    
        25.34       25.30       25.26       25.22       25.18       25.15       25.11       25.07       25.04       25.00    
   3    45.90       45.01       43.40       41.62       39.92       38.36       36.96       35.68       34.52       33.48    
        32.54       31.69       30.92       30.22       29.58       29.01       28.50       28.05       27.64       27.28    
        26.96       26.68       26.44       26.22       26.04       25.87       25.73       25.60       25.49       25.38    
        25.33       25.29       25.26       25.22       25.18       25.14       25.11       25.07       25.04       25.00    
   4    43.34       42.73       41.62       40.30       38.93       37.61       36.37       35.22       34.15       33.18    
        32.29       31.47       30.73       30.07       29.46       28.91       28.41       27.97       27.58       27.23    
        26.92       26.65       26.41       26.20       26.01       25.85       25.71       25.59       25.48       25.37    
        25.33       25.29       25.25       25.22       25.18       25.14       25.11       25.07       25.04       25.00    
   5    41.13       40.70       39.92       38.93       37.85       36.75       35.67       34.65       33.69       32.80    
        31.97       31.21       30.51       29.87       29.30       28.77       28.30       27.88       27.50       27.16    
        26.86       26.60       26.37       26.17       25.99       25.83       25.69       25.57       25.46       25.37    
        25.33       25.29       25.25       25.21       25.18       25.14       25.11       25.07       25.04       25.00    
   6    39.24       38.93       38.36       37.61       36.75       35.84       34.92       34.03       33.17       32.36    
        31.61       30.90       30.25       29.66       29.11       28.62       28.17       27.77       27.41       27.08    
        26.80       26.55       26.32       26.13       25.95       25.80       25.67       25.55       25.45       25.38    
        25.33       25.29       25.25       25.21       25.17       25.14       25.10       25.07       25.03       25.00    
   7    37.62       37.39       36.96       36.37       35.67       34.92       34.14       33.37       32.62       31.90    
        31.21       30.56       29.96       29.41       28.90       28.44       28.02       27.64       27.30       26.99    
        26.72       26.48       26.27       26.08       25.92       25.77       25.64       25.52       25.42       25.36    
        25.32       25.28       25.24       25.21       25.17       25.14       25.10       25.07       25.03       25.00    
   8    36.19       36.02       35.68       35.22       34.65       34.03       33.37       32.71       32.05       31.41    
        30.79       30.21       29.66       29.15       28.68       28.25       27.86       27.50       27.18       26.89    
        26.64       26.41       26.21       26.03       25.87       25.73       25.61       25.49       25.39       25.34    
        25.30       25.27       25.23       25.20       25.17       25.13       25.10       25.07       25.03       25.00    
   9    34.93       34.79       34.52       34.15       33.69       33.17       32.62       32.05       31.48       30.91    
        30.36       29.83       29.34       28.87       28.44       28.04       27.68       27.35       27.05       26.79    
        26.55       26.33       26.14       25.98       25.83       25.69       25.57       25.46       25.36       25.32    
        25.29       25.26       25.23       25.19       25.16       25.13       25.10       25.06       25.03       25.00    
  10    33.81       33.70       33.48       33.18       32.80       32.36       31.90       31.41       30.91       30.42    
        29.93       29.45       29.01       28.59       28.20       27.83       27.50       27.20       26.92       26.67    
        26.45       26.25       26.07       25.92       25.78       25.65       25.53       25.41       25.33       25.30    
        25.28       25.25       25.22       25.19       25.16       25.12       25.09       25.06       25.03       25.00    
  11    32.81       32.72       32.54       32.29       31.97       31.61       31.21       30.79       30.36       29.93    
        29.50       29.08       28.68       28.30       27.95       27.62       27.32       27.04       26.79       26.56    
        26.35       26.17       26.00       25.86       25.73       25.60       25.49       25.37       25.31       25.29    
        25.27       25.24       25.21       25.18       25.15       25.12       25.09       25.06       25.03       25.00    
  12    31.91       31.84       31.69       31.47       31.21       30.90       30.56       30.21       29.83       29.45    
        29.08       28.71       28.36       28.02       27.70       27.41       27.13       26.88       26.65       26.44    
        26.25       26.08       25.93       25.80       25.67       25.56       25.45       25.35       25.31       25.28    
        25.26       25.23       25.20       25.17       25.15       25.12       25.09       25.06       25.03       25.00    
  13    31.11       31.05       30.92       30.73       30.51       30.25       29.96       29.66       29.34       29.01    
        28.68       28.36       28.04       27.75       27.46       27.20       26.95       26.72       26.51       26.33    
        26.15       26.00       25.86       25.74       25.62       25.51       25.40       25.33       25.30       25.28    
        25.25       25.22       25.20       25.17       25.14       25.11       25.08       25.06       25.03       25.00    
  14    30.38       30.33       30.22       30.07       29.87       29.66       29.41       29.15       28.87       28.59    
        28.30       28.02       27.75       27.48       27.23       26.99       26.77       26.57       26.38       26.21    
        26.06       25.92       25.79       25.67       25.57       25.47       25.37       25.32       25.29       25.27    
        25.24       25.22       25.19       25.16       25.14       25.11       25.08       25.05       25.03       25.00    
  15    29.72       29.67       29.58       29.46       29.30       29.11       28.90       28.68       28.44       28.20    
        27.95       27.70       27.46       27.23       27.01       26.80       26.60       26.42       26.26       26.10    
        25.96       25.83       25.72       25.61       25.52       25.42       25.35       25.31       25.29       25.26    
        25.23       25.21       25.18       25.16       25.13       25.10       25.08       25.05       25.03       25.00    
  16    29.12       29.09       29.01       28.91       28.77       28.62       28.44       28.25       28.04       27.83    
        27.62       27.41       27.20       26.99       26.80       26.62       26.44       26.28       26.13       26.00    
        25.87       25.76       25.65       25.55       25.46       25.37       25.33       25.30       25.28       25.25    
        25.23       25.20       25.18       25.15       25.13       25.10       25.08       25.05       25.03       25.00    
  17    28.59       28.56       28.50       28.41       28.30       28.17       28.02       27.86       27.68       27.50    
        27.32       27.13       26.95       26.77       26.60       26.44       26.29       26.15       26.02       25.89    
        25.78       25.68       25.58       25.49       25.39       25.33       25.31       25.29       25.26       25.24    
        25.22       25.19       25.17       25.14       25.12       25.10       25.07       25.05       25.02       25.00    
  18    28.12       28.10       28.05       27.97       27.88       27.77       27.64       27.50       27.35       27.20    
        27.04       26.88       26.72       26.57       26.42       26.28       26.15       26.02       25.91       25.80    
        25.70       25.60       25.51       25.43       25.35       25.31       25.29       25.27       25.25       25.23    
        25.21       25.18       25.16       25.14       25.12       25.09       25.07       25.05       25.02       25.00    
  19    27.70       27.68       27.64       27.58       27.50       27.41       27.30       27.18       27.05       26.92    
        26.79       26.65       26.51       26.38       26.26       26.13       26.02       25.91       25.80       25.71    
        25.61       25.53       25.44       25.36       25.31       25.30       25.28       25.26       25.24       25.22    
        25.20       25.18       25.15       25.13       25.11       25.09       25.07       25.04       25.02       25.00    
  20    27.33       27.32       27.28       27.23       27.16       27.08       26.99       26.89       26.79       26.67    
        26.56       26.44       26.33       26.21       26.10       26.00       25.89       25.80       25.71       25.62    
        25.53       25.45       25.37       25.32       25.30       25.28       25.26       25.25       25.23       25.21    
        25.19       25.17       25.15       25.13       25.11       25.08       25.06       25.04       25.02       25.00    
  21    27.01       26.99       26.96       26.92       26.86       26.80       26.72       26.64       26.55       26.45    
        26.35       26.25       26.15       26.06       25.96       25.87       25.78       25.70       25.61       25.53    
        25.45       25.37       25.32       25.30       25.28       25.27       25.25       25.23       25.22       25.20    
        25.18       25.16       25.14       25.12       25.10       25.08       25.06       25.04       25.02       25.00    
  22    26.72       26.71       26.68       26.65       26.60       26.55       26.48       26.41       26.33       26.25    
        26.17       26.08       26.00       25.92       25.83       25.76       25.68       25.60       25.53       25.45    
        25.37       25.33       25.30       25.29       25.27       25.25       25.24       25.22       25.20       25.19    
        25.17       25.15       25.13       25.11       25.10       25.08       25.06       25.04       25.02       25.00    
  23    26.47       26.46       26.44       26.41       26.37       26.32       26.27       26.21       26.14       26.07    
        26.00       25.93       25.86       25.79       25.72       25.65       25.58       25.51       25.44       25.37    
        25.32       25.30       25.29       25.27       25.26       25.24       25.23       25.21       25.19       25.18    
        25.16       25.14       25.13       25.11       25.09       25.07       25.05       25.04       25.02       25.00    
  24    26.25       26.24       26.22       26.20       26.17       26.13       26.08       26.03       25.98       25.92    
        25.86       25.80       25.74       25.67       25.61       25.55       25.49       25.43       25.36       25.32    
        25.30       25.29       25.27       25.26       25.24       25.23       25.21       25.20       25.18       25.17    
        25.15       25.13       25.12       25.10       25.08       25.07       25.05       25.03       25.02       25.00    
  25    26.06       26.05       26.04       26.01       25.99       25.95       25.92       25.87       25.83       25.78    
        25.73       25.67       25.62       25.57       25.52       25.46       25.39       25.35       25.31       25.30    
        25.28       25.27       25.26       25.24       25.23       25.22       25.20       25.19       25.17       25.16    
        25.14       25.13       25.11       25.10       25.08       25.06       25.05       25.03       25.02       25.00    
  26    25.89       25.88       25.87       25.85       25.83       25.80       25.77       25.73       25.69       25.65    
        25.60       25.56       25.51       25.47       25.42       25.37       25.33       25.31       25.30       25.28    
        25.27       25.25       25.24       25.23       25.22       25.20       25.19       25.17       25.16       25.15    
        25.13       25.12       25.10       25.09       25.07       25.06       25.04       25.03       25.01       25.00    
  27    25.74       25.74       25.73       25.71       25.69       25.67       25.64       25.61       25.57       25.53    
        25.49       25.45       25.40       25.37       25.35       25.33       25.31       25.29       25.28       25.26    
        25.25       25.24       25.23       25.21       25.20       25.19       25.18       25.16       25.15       25.14    
        25.12       25.11       25.10       25.08       25.07       25.06       25.04       25.03       25.01       25.00    
  28    25.61       25.61       25.60       25.59       25.57       25.55       25.52       25.49       25.46       25.41    
        25.37       25.35       25.33       25.32       25.31       25.30       25.29       25.27       25.26       25.25    
        25.23       25.22       25.21       25.20       25.19       25.17       25.16       25.15       25.14       25.13    
        25.11       25.10       25.09       25.08       25.06       25.05       25.04       25.03       25.01       25.00    
  29    25.49       25.49       25.49       25.48       25.46       25.45       25.42       25.39       25.36       25.33    
        25.31       25.31       25.30       25.29       25.29       25.28       25.26       25.25       25.24       25.23    
        25.22       25.20       25.19       25.18       25.17       25.16       25.15       25.14       25.13       25.12    
        25.10       25.09       25.08       25.07       25.06       25.05       25.04       25.02       25.01       25.00    
  30    25.39       25.38       25.38       25.37       25.37       25.38       25.36       25.34       25.32       25.30    
        25.29       25.28       25.28       25.27       25.26       25.25       25.24       25.23       25.22       25.21    
        25.20       25.19       25.18       25.17       25.16       25.15       25.14       25.13       25.12       25.11    
        25.10       25.09       25.07       25.06       25.05       25.04       25.03       25.02       25.01       25.00    
  31    25.34       25.34       25.33       25.33       25.33       25.33       25.32       25.30       25.29       25.28    
        25.27       25.26       25.25       25.24       25.23       25.23       25.22       25.21       25.20       25.19    
        25.18       25.17       25.16       25.15       25.14       25.13       25.12       25.11       25.10       25.10    
        25.09       25.08       25.07       25.06       25.05       25.04       25.03       25.02       25.01       25.00    
  32    25.30       25.30       25.29       25.29       25.29       25.29       25.28       25.27       25.26       25.25    
        25.24       25.23       25.22       25.22       25.21       25.20       25.19       25.18       25.18       25.17    
        25.16       25.15       25.14       25.13       25.13       25.12       25.11       25.10       25.09       25.09    
        25.08       25.07       25.06       25.05       25.04       25.03       25.03       25.02       25.01       25.00    
  33    25.26       25.26       25.26       25.25       25.25       25.25       25.24       25.23       25.23       25.22    
        25.21       25.20       25.20       25.19       25.18       25.18       25.17       25.16       25.15       25.15    
        25.14       25.13       25.13       25.12       25.11       25.10       25.10       25.09       25.08       25.07    
        25.07       25.06       25.05       25.05       25.04       25.03       25.02       25.02       25.01       25.00    
  34    25.22       25.22       25.22       25.22       25.21       25.21       25.21       25.20       25.19       25.19    
        25.18       25.17       25.17       25.16       25.16       25.15       25.14       25.14       25.13       25.13    
        25.12       25.11       25.11       25.10       25.10       25.09       25.08       25.08       25.07       25.06    
        25.06       25.05       25.05       25.04       25.03       25.03       25.02       25.01       25.01       25.00    
  35    25.18       25.18       25.18       25.18       25.18       25.17       25.17       25.17       25.16       25.16    
        25.15       25.15       25.14       25.14       25.13       25.13       25.12       25.12       25.11       25.11    
        25.10       25.10       25.09       25.08       25.08       25.07       25.07       25.06       25.06       25.05    
        25.05       25.04       25.04       25.03       25.03       25.02       25.02       25.01       25.01       25.00    
  36    25.15       25.15       25.14       25.14       25.14       25.14       25.14       25.13       25.13       25.12    
        25.12       25.12       25.11       25.11       25.10       25.10       25.10       25.09       25.09       25.08    
        25.08       25.08       25.07       25.07       25.06       25.06       25.06       25.05       25.05       25.04    
        25.04       25.03       25.03       25.03       25.02       25.02       25.01       25.01       25.00       25.00    
  37    25.11       25.11       25.11       25.11       25.11       25.10       25.10       25.10       25.10       25.09    
        25.09       25.09       25.08       25.08       25.08       25.08       25.07       25.07       25.07       25.06    
        25.06       25.06       25.05       25.05       25.05       25.04       25.04       25.04       25.04       25.03    
        25.03       25.03       25.02       25.02       25.02       25.01       25.01       25.01       25.00       25.00    
  38    25.07       25.07       25.07       25.07       25.07       25.07       25.07       25.07       25.06       25.06    
        25.06       25.06       25.06       25.05       25.05       25.05       25.05       25.05       25.04       25.04    
        25.04       25.04       25.04       25.03       25.03       25.03       25.03       25.03       25.02       25.02    
        25.02       25.02       25.02       25.01       25.01       25.01       25.01       25.00       25.00       25.00    
  39    25.04       25.04       25.04       25.04       25.04       25.03       25.03       25.03       25.03       25.03    
        25.03       25.03       25.03       25.03       25.03       25.03       25.02       25.02       25.02       25.02    
        25.02       25.02       25.02       25.02       25.02       25.01       25.01       25.01       25.01       25.01    
        25.01       25.01       25.01       25.01       25.01       25.00       25.00       25.00       25.00       25.00    
  40    25.00       25.00       25.00       25.00       25.00       25.00       25.00       25.00       25.00       25.00    
        25.00       25.00       25.00       25.00       25.00       25.00       25.00       25.00       25.00       25.00    
        25.00       25.00       25.00       25.00       25.00       25.00       25.00       25.00       25.00       25.00    
        25.00       25.00       25.00       25.00       25.00       25.00       25.00       25.00       25.00       25.00    
1
  VOLUMETRIC BUDGET FOR ENTIRE MODEL AT END OF TIME STEP   17, STRESS PERIOD   3
  ------------------------------------------------------------------------------

     CUMULATIVE VOLUMES      L**3       RATES FOR THIS TIME STEP      L**3/T
     ------------------                 ------------------------

           IN:                                      IN:
           ---                                      ---
             STORAGE =       23005.5938               STORAGE =          46.6871
       CONSTANT HEAD =           0.1204         CONSTANT HEAD =           0.0000
            RECHARGE =     8218751.5000              RECHARGE =        3125.0000

            TOTAL IN =     8241757.0000              TOTAL IN =        3171.6870

          OUT:                                     OUT:
          ----                                     ----
             STORAGE =     7936571.0000               STORAGE =        2970.5505
       CONSTANT HEAD =      305198.3125         CONSTANT HEAD =         201.1449
            RECHARGE =           0.0000              RECHARGE =           0.0000

           TOTAL OUT =     8241769.5000             TOTAL OUT =        3171.6953

            IN - OUT =         -12.5000              IN - OUT =      -8.3008E-03

 PERCENT DISCREPANCY =          -0.00     PERCENT DISCREPANCY =          -0.00






         TIME SUMMARY AT END OF TIME STEP   17 IN STRESS PERIOD    3
                    SECONDS     MINUTES      HOURS       DAYS        YEARS
                    -----------------------------------------------------------
   TIME STEP LENGTH 9.76828E+06 1.62805E+05  2713.4      113.06     0.30954    
 STRESS PERIOD TIME 1.66061E+08 2.76768E+06  46128.      1922.0      5.2621    
         TOTAL TIME 2.27232E+08 3.78720E+06  63120.      2630.0      7.2005    
1

 Run end date and time (yyyy/mm/dd hh:mm:ss): 2014/06/10 15:56:06
 Elapsed run time:  1.100 Seconds

